
 ===================================================
  XFOIL Version 6.99
  Copyright (C) 2000   Mark Drela, Harold Youngren

  This software comes with ABSOLUTELY NO WARRANTY,
    subject to the GNU General Public License.

  Caveat computor
 ===================================================

 File  xfoil.def  not found

   QUIT    Exit program

  .OPER    Direct operating point(s)
  .MDES    Complex mapping design routine
  .QDES    Surface speed design routine
  .GDES    Geometry design routine

   SAVE f  Write airfoil to labeled coordinate file
   PSAV f  Write airfoil to plain coordinate file
   ISAV f  Write airfoil to ISES coordinate file
   MSAV f  Write airfoil to MSES coordinate file
   REVE    Reverse written-airfoil node ordering
   DELI i  Change written-airfoil file delimiters

   LOAD f  Read buffer airfoil from coordinate file
   NACA i  Set NACA 4,5-digit airfoil and buffer airfoil
   INTE    Set buffer airfoil by interpolating two airfoils
   NORM    Buffer airfoil normalization toggle
   HALF    Halve the number of points in buffer airfoil
   XYCM rr Change CM reference location, currently  0.25000 0.00000

   BEND    Display structural properties of current airfoil

   PCOP    Set current-airfoil panel nodes directly from buffer airfoil points
   PANE    Set current-airfoil panel nodes ( 160 ) based on curvature
  .PPAR    Show/change paneling

  .PLOP    Plotting options

   WDEF f  Write  current-settings file
   RDEF f  Reread current-settings file
   NAME s  Specify new airfoil name
   NINC    Increment name version number

   Z       Zoom    | (available in all menus)
   U       Unzoom  | 

 XFOIL   c>   ...............................................

  G raphics-enable flag:        T
  S ize of plot object          10.00"
  A spect ratio of plot object   0.5500
  P age dimensions              11.00 x  8.50"
  M argins from page edges       0.00",  0.00"
  F ont size (relative)          0.0150
  W indow/screen size fraction   0.8000
  B lowup input method:        Cursor    
  O rientation of plot:        Landscape 
  C olor PostScript output?     T
  L ine colors for top,bottom    8  3

      Option, Value   (or <Return>)    c>   ...............................................

  G raphics-enable flag:        F
  S ize of plot object          10.00"
  A spect ratio of plot object   0.5500
  P age dimensions              11.00 x  8.50"
  M argins from page edges       0.00",  0.00"
  F ont size (relative)          0.0150
  W indow/screen size fraction   0.8000
  B lowup input method:        Cursor    
  O rientation of plot:        Landscape 
  C olor PostScript output?     T
  L ine colors for top,bottom    8  3

      Option, Value   (or <Return>)    c>  
 XFOIL   c>  
 Labeled airfoil file.  Name:  pyXFOIL Airfoil                                 

 Number of input coordinate points:  61
 Counterclockwise ordering
 Max thickness =     0.090706  at x =   0.311
 Max camber    =     0.037836  at x =   0.401

  LE  x,y  =   0.00019   0.00026  |   Chord =   0.99981
  TE  x,y  =   1.00000   0.00000  |

 Current airfoil nodes set from buffer airfoil nodes (  61 )

 WARNING: Poor input coordinate distribution
          Excessive panel angle   52.5  at i =  33
          Repaneling with PANE and/or PPAR suggested
           (doing GDES,CADD before repaneling _may_
            improve excessively coarse LE spacing

 XFOIL   c>  
    Present paneling parameters...
  N  i   Number of panel nodes       160
  P  r   Panel bunching parameter    1.000
  T  r   TE/LE panel density ratio   0.150
  R  r   Refined area/LE  panel density ratio   0.200
  XT rr  Top    side refined area x/c limits    1.000 1.000
  XB rr  Bottom side refined area x/c limits    1.000 1.000
  Z oom
  U nzoom
  H ardcopy

Change what ? (<cr> if nothing else)   c>  
Change what ? (<cr> if nothing else)   c>  
 Sharp trailing edge

 Maximum panel corner angle =  9.451   at  i,x,y  = 158   0.0010  -0.0031

    Present paneling parameters...
  N  i   Number of panel nodes       301
  P  r   Panel bunching parameter    1.000
  T  r   TE/LE panel density ratio   0.150
  R  r   Refined area/LE  panel density ratio   0.200
  XT rr  Top    side refined area x/c limits    1.000 1.000
  XB rr  Bottom side refined area x/c limits    1.000 1.000
  Z oom
  U nzoom
  H ardcopy

Change what ? (<cr> if nothing else)   c>  
 XFOIL   c>  
.OPERi   c>  
 M  =    0.0000
 Re =  0.5000E+06

.OPERv   c>  
.OPERv   c>  
.OPERv   c>  
 Polar  1 newly created for accumulation
 Airfoil archived with polar: pyXFOIL Airfoil                                 

Enter  polar save filename  OR  <return> for no file   s>  
 New polar save file available

Enter  polar dump filename  OR  <return> for no file   s>  
 New polar dump file available

 Polar accumulation enabled

.OPERva   c>   Calculating unit vorticity distributions ...
 Calculating wake trajectory ...
 Calculating source influence matrix ...

 Solving BL system ...

 Initializing BL ...
    side            1  ...
 MRCHUE: Inverse mode at  86     Hk =   4.004
 MRCHUE: Inverse mode at  87     Hk =   4.359
 MRCHUE: Inverse mode at  88     Hk =   4.710
 MRCHUE: Inverse mode at  89     Hk =   5.057
 MRCHUE: Inverse mode at  90     Hk =   5.402
 MRCHUE: Inverse mode at  91     Hk =   5.744
 MRCHUE: Inverse mode at  92     Hk =   6.084
 MRCHUE: Inverse mode at  93     Hk =   6.422
 MRCHUE: Inverse mode at  94     Hk =   6.759
 MRCHUE: Inverse mode at  95     Hk =   7.094
 MRCHUE: Inverse mode at  96     Hk =   7.428
 MRCHUE: Inverse mode at  97     Hk =   7.761
 MRCHUE: Inverse mode at  98     Hk =   8.094
 MRCHUE: Inverse mode at  99     Hk =   8.425
 MRCHUE: Inverse mode at 100     Hk =   8.756
 MRCHUE: Inverse mode at 101     Hk =   8.948
 MRCHUE: Inverse mode at 102     Hk =   7.343
 MRCHUE: Inverse mode at 103     Hk =   6.235
 MRCHUE: Inverse mode at 104     Hk =   5.377
 MRCHUE: Inverse mode at 105     Hk =   4.676
 MRCHUE: Inverse mode at 106     Hk =   4.083
 MRCHUE: Inverse mode at 107     Hk =   3.571
 MRCHUE: Inverse mode at 108     Hk =   3.123
    side            2  ...
 MRCHUE: Inverse mode at 146     Hk =   3.800
 MRCHUE: Inverse mode at 147     Hk =   3.961
 MRCHUE: Inverse mode at 148     Hk =   4.103
 MRCHUE: Inverse mode at 149     Hk =   4.223
 MRCHUE: Inverse mode at 150     Hk =   4.310

 Side 1  free  transition at x/c =  0.6097  101
 Side 2 forced transition at x/c =  1.0000  150
BRO:  17.27971

   1   rms: 0.1740E+00   max: -.1971E+01   T at  101  1   RLX: 0.254
       a =  0.000      CL =  0.4084
      Cm = -0.0819     CD =  0.00893   =>   CDf =  0.00501    CDp =  0.00392

 MRCHDU: Convergence failed at 105  side 1    Res =  0.2723E+03
 MRCHDU: Convergence failed at 106  side 1    Res =  0.1886E+01
 MRCHDU: Convergence failed at 107  side 1    Res =  0.2544E+01
 MRCHDU: Convergence failed at 108  side 1    Res =  0.3396E+01
 Side 1  free  transition at x/c =  0.6240  103
 Side 2 forced transition at x/c =  1.0000  150
BRO:  15.44290

   2   rms: 0.5702E-01   max: -.6668E+00   C at  150  2   RLX: 0.750
       a =  0.000      CL =  0.3993
      Cm = -0.0811     CD =  0.00686   =>   CDf =  0.00473    CDp =  0.00213

 Side 1  free  transition at x/c =  0.6352  105
 Side 2 forced transition at x/c =  1.0000  150
BRO:  14.57974

   3   rms: 0.3430E-01   max: -.3500E+00   T at  106  1
       a =  0.000      CL =  0.3954
      Cm = -0.0798     CD =  0.00670   =>   CDf =  0.00484    CDp =  0.00186

 Side 1  free  transition at x/c =  0.6435  106
 Side 2 forced transition at x/c =  1.0000  150
BRO:  14.57013

   4   rms: 0.1348E-01   max: -.1737E+00   D at  106  1
       a =  0.000      CL =  0.3955
      Cm = -0.0798     CD =  0.00684   =>   CDf =  0.00473    CDp =  0.00210

 Side 1  free  transition at x/c =  0.6448  106
 Side 2 forced transition at x/c =  1.0000  150
BRO:  14.64231

   5   rms: 0.1640E-02   max: 0.1827E-01   C at  106  1
       a =  0.000      CL =  0.3956
      Cm = -0.0799     CD =  0.00685   =>   CDf =  0.00467    CDp =  0.00218

 Side 1  free  transition at x/c =  0.6443  106
 Side 2 forced transition at x/c =  1.0000  150
BRO:  14.63734

   6   rms: 0.3565E-04   max: -.4202E-03   D at  107  1
       a =  0.000      CL =  0.3956
      Cm = -0.0799     CD =  0.00685   =>   CDf =  0.00468    CDp =  0.00217
      9.000    5.4426   0.006851   0.001973   0.002397   0.000424    0.6443     #

 Point added to stored polar  1
 Point written to save file  polar                                           
 Point written to dump file .bl                                             
 Calculating wake trajectory ...
 Calculating source influence matrix ...

 Solving BL system ...

 Side 1  free  transition at x/c =  0.6443  106
 Side 2 forced transition at x/c =  1.0000  150
BRO:  14.50764

   1   rms: 0.1902E-01   max: -.3700E-01   n at  149  2
       a =  0.100      CL =  0.4067
      Cm = -0.0798     CD =  0.00688   =>   CDf =  0.00468    CDp =  0.00220

 Side 1  free  transition at x/c =  0.6419  106
 Side 2 forced transition at x/c =  1.0000  150
BRO:  14.49075

   2   rms: 0.1285E-02   max: -.1500E-01   D at  106  1
       a =  0.100      CL =  0.4067
      Cm = -0.0798     CD =  0.00688   =>   CDf =  0.00473    CDp =  0.00216

 Side 1  free  transition at x/c =  0.6422  106
 Side 2 forced transition at x/c =  1.0000  150
BRO:  14.49415

   3   rms: 0.1877E-04   max: -.2777E-03   D at  109  1
       a =  0.100      CL =  0.4067
      Cm = -0.0798     CD =  0.00688   =>   CDf =  0.00472    CDp =  0.00216
      9.000    5.4428   0.006883   0.001980   0.002406   0.000426    0.6422     #

 Point added to stored polar  1
 Point written to save file  polar                                           
 Point written to dump file .bl                                             
 Calculating wake trajectory ...
 Calculating source influence matrix ...

 Solving BL system ...

 Side 1  free  transition at x/c =  0.6422  106
 Side 2 forced transition at x/c =  1.0000  150
BRO:  14.34494

   1   rms: 0.1889E-01   max: -.3410E-01   n at  149  2
       a =  0.200      CL =  0.4177
      Cm = -0.0798     CD =  0.00692   =>   CDf =  0.00472    CDp =  0.00220

 Side 1  free  transition at x/c =  0.6403  105
 Side 2 forced transition at x/c =  1.0000  150
BRO:  14.36427

   2   rms: 0.8409E-03   max: 0.1440E-01   D at  106  1
       a =  0.200      CL =  0.4177
      Cm = -0.0798     CD =  0.00692   =>   CDf =  0.00476    CDp =  0.00215

 Side 1  free  transition at x/c =  0.6400  105
 Side 2 forced transition at x/c =  1.0000  150
BRO:  14.36346

   3   rms: 0.2432E-04   max: -.2833E-03   D at  106  1
       a =  0.200      CL =  0.4177
      Cm = -0.0798     CD =  0.00692   =>   CDf =  0.00476    CDp =  0.00216
      9.000    5.4477   0.006917   0.001987   0.002419   0.000433    0.6400     #

 Point added to stored polar  1
 Point written to save file  polar                                           
 Point written to dump file .bl                                             
 Calculating wake trajectory ...
 Calculating source influence matrix ...

 Solving BL system ...

 Side 1  free  transition at x/c =  0.6400  105
 Side 2 forced transition at x/c =  1.0000  150
BRO:  14.29221

   1   rms: 0.1855E-01   max: -.3257E-01   n at  149  2
       a =  0.300      CL =  0.4288
      Cm = -0.0798     CD =  0.00694   =>   CDf =  0.00476    CDp =  0.00218

 Side 1  free  transition at x/c =  0.6372  105
 Side 2 forced transition at x/c =  1.0000  150
BRO:  14.27064

   2   rms: 0.1355E-02   max: -.1640E-01   D at  106  1
       a =  0.300      CL =  0.4288
      Cm = -0.0798     CD =  0.00694   =>   CDf =  0.00479    CDp =  0.00216

 Side 1  free  transition at x/c =  0.6375  105
 Side 2 forced transition at x/c =  1.0000  150
BRO:  14.27434

   3   rms: 0.1010E-04   max: -.1967E-03   D at  108  1
       a =  0.300      CL =  0.4288
      Cm = -0.0798     CD =  0.00694   =>   CDf =  0.00478    CDp =  0.00216
      9.000    5.4727   0.006941   0.001993   0.002433   0.000440    0.6375     #

 Point added to stored polar  1
 Point written to save file  polar                                           
 Point written to dump file .bl                                             
 Calculating wake trajectory ...
 Calculating source influence matrix ...

 Solving BL system ...

 Side 1  free  transition at x/c =  0.6375  105
 Side 2 forced transition at x/c =  1.0000  150
BRO:  14.17598

   1   rms: 0.1856E-01   max: -.3199E-01   n at  149  2
       a =  0.400      CL =  0.4399
      Cm = -0.0798     CD =  0.00697   =>   CDf =  0.00478    CDp =  0.00219

 Side 1  free  transition at x/c =  0.6350  105
 Side 2 forced transition at x/c =  1.0000  150
BRO:  14.15761

   2   rms: 0.1352E-02   max: -.1431E-01   D at  105  1
       a =  0.400      CL =  0.4399
      Cm = -0.0798     CD =  0.00697   =>   CDf =  0.00482    CDp =  0.00215

 Side 1  free  transition at x/c =  0.6353  105
 Side 2 forced transition at x/c =  1.0000  150
BRO:  14.16141

   3   rms: 0.1942E-04   max: -.3265E-03   D at  108  1
       a =  0.400      CL =  0.4399
      Cm = -0.0798     CD =  0.00697   =>   CDf =  0.00481    CDp =  0.00216
      9.000    5.4798   0.006973   0.002000   0.002440   0.000440    0.6353     #

 Point added to stored polar  1
 Point written to save file  polar                                           
 Point written to dump file .bl                                             
 Calculating wake trajectory ...
 Calculating source influence matrix ...

 Solving BL system ...

 Side 1  free  transition at x/c =  0.6353  105
 Side 2 forced transition at x/c =  1.0000  150
BRO:  14.04447

   1   rms: 0.1867E-01   max: -.3144E-01   n at  149  2
       a =  0.500      CL =  0.4509
      Cm = -0.0797     CD =  0.00701   =>   CDf =  0.00482    CDp =  0.00219

 Side 1  free  transition at x/c =  0.6332  105
 Side 2 forced transition at x/c =  1.0000  149
BRO:  14.01300

   2   rms: 0.1065E-02   max: -.1445E-01   D at  106  1
       a =  0.500      CL =  0.4509
      Cm = -0.0797     CD =  0.00702   =>   CDf =  0.00486    CDp =  0.00215

 Side 1  free  transition at x/c =  0.6333  106
 Side 2 forced transition at x/c =  1.0000  149
BRO:  14.01387

   3   rms: 0.4962E-02   max: -.6185E-01   C at  106  1
       a =  0.500      CL =  0.4509
      Cm = -0.0797     CD =  0.00701   =>   CDf =  0.00489    CDp =  0.00212

 Side 1  free  transition at x/c =  0.6335  106
 Side 2 forced transition at x/c =  1.0000  149
BRO:  14.02513

   4   rms: 0.3405E-03   max: -.4725E-02   D at  109  1
       a =  0.500      CL =  0.4509
      Cm = -0.0797     CD =  0.00702   =>   CDf =  0.00486    CDp =  0.00216

 Side 1  free  transition at x/c =  0.6334  106
 Side 2 forced transition at x/c =  1.0000  149
BRO:  14.02435

   5   rms: 0.2545E-05   max: -.3473E-04   D at  109  1
       a =  0.500      CL =  0.4509
      Cm = -0.0797     CD =  0.00702   =>   CDf =  0.00486    CDp =  0.00216
      9.000    5.4708   0.007015   0.002007   0.002450   0.000443    0.6334     #

 Point added to stored polar  1
 Point written to save file  polar                                           
 Point written to dump file .bl                                             
 Calculating wake trajectory ...
 Calculating source influence matrix ...

 Solving BL system ...

 Side 1  free  transition at x/c =  0.6334  106
 Side 2 forced transition at x/c =  1.0000  149
BRO:  13.87946

   1   rms: 0.1884E-01   max: -.3077E-01   n at  148  2
       a =  0.600      CL =  0.4619
      Cm = -0.0797     CD =  0.00707   =>   CDf =  0.00486    CDp =  0.00221

 Side 1  free  transition at x/c =  0.6317  105
 Side 2 forced transition at x/c =  1.0000  149
BRO:  13.96470

   2   rms: 0.2124E-02   max: 0.4490E-01   D at  106  1
       a =  0.600      CL =  0.4621
      Cm = -0.0797     CD =  0.00704   =>   CDf =  0.00488    CDp =  0.00216

 Side 1  free  transition at x/c =  0.6308  105
 Side 2 forced transition at x/c =  1.0000  149
BRO:  13.95746

   3   rms: 0.2732E-03   max: -.2978E-02   D at  106  1
       a =  0.600      CL =  0.4621
      Cm = -0.0797     CD =  0.00704   =>   CDf =  0.00487    CDp =  0.00217

 Side 1  free  transition at x/c =  0.6309  105
 Side 2 forced transition at x/c =  1.0000  149
BRO:  13.95819

   4   rms: 0.3111E-05   max: 0.1238E-04   n at  127  2
       a =  0.600      CL =  0.4621
      Cm = -0.0797     CD =  0.00704   =>   CDf =  0.00487    CDp =  0.00217
      9.000    5.4945   0.007039   0.002013   0.002467   0.000454    0.6309     #

 Point added to stored polar  1
 Point written to save file  polar                                           
 Point written to dump file .bl                                             
 Calculating wake trajectory ...
 Calculating source influence matrix ...

 Solving BL system ...

 Side 1  free  transition at x/c =  0.6309  105
 Side 2 forced transition at x/c =  1.0000  149
BRO:  13.88834

   1   rms: 0.1832E-01   max: -.2885E-01   n at  148  2
       a =  0.700      CL =  0.4732
      Cm = -0.0797     CD =  0.00707   =>   CDf =  0.00487    CDp =  0.00220

 Side 1  free  transition at x/c =  0.6283  105
 Side 2 forced transition at x/c =  1.0000  149
BRO:  13.86781

   2   rms: 0.1313E-02   max: -.1427E-01   D at  106  1
       a =  0.700      CL =  0.4732
      Cm = -0.0797     CD =  0.00707   =>   CDf =  0.00490    CDp =  0.00217

 Side 1  free  transition at x/c =  0.6285  105
 Side 2 forced transition at x/c =  1.0000  149
BRO:  13.87151

   3   rms: 0.1331E-04   max: -.2397E-03   D at  108  1
       a =  0.700      CL =  0.4732
      Cm = -0.0797     CD =  0.00707   =>   CDf =  0.00490    CDp =  0.00217
      9.000    5.5079   0.007070   0.002020   0.002476   0.000456    0.6285     #

 Point added to stored polar  1
 Point written to save file  polar                                           
 Point written to dump file .bl                                             
 Calculating wake trajectory ...
 Calculating source influence matrix ...

 Solving BL system ...

 Side 1  free  transition at x/c =  0.6285  105
 Side 2 forced transition at x/c =  1.0000  149
BRO:  13.78072

   1   rms: 0.1821E-01   max: -.2631E-01   n at  148  2
       a =  0.800      CL =  0.4842
      Cm = -0.0797     CD =  0.00711   =>   CDf =  0.00490    CDp =  0.00221

 Side 1  free  transition at x/c =  0.6263  105
 Side 2 forced transition at x/c =  1.0000  149
BRO:  13.75958

   2   rms: 0.1261E-02   max: -.1556E-01   D at  105  1
       a =  0.800      CL =  0.4842
      Cm = -0.0797     CD =  0.00711   =>   CDf =  0.00494    CDp =  0.00217

 Side 1  free  transition at x/c =  0.6265  105
 Side 2 forced transition at x/c =  1.0000  149
BRO:  13.76321

   3   rms: 0.1832E-04   max: -.2608E-03   D at  108  1
       a =  0.800      CL =  0.4842
      Cm = -0.0797     CD =  0.00711   =>   CDf =  0.00493    CDp =  0.00218
      9.000    5.5051   0.007109   0.002028   0.002484   0.000456    0.6265     #

 Point added to stored polar  1
 Point written to save file  polar                                           
 Point written to dump file .bl                                             
 Calculating wake trajectory ...
 Calculating source influence matrix ...

 Solving BL system ...

 Side 1  free  transition at x/c =  0.6265  105
 Side 2 forced transition at x/c =  1.0000  149
BRO:  13.65166

   1   rms: 0.1822E-01   max: -.2415E-01   n at  148  2
       a =  0.900      CL =  0.4953
      Cm = -0.0796     CD =  0.00715   =>   CDf =  0.00494    CDp =  0.00222

 Side 1  free  transition at x/c =  0.6247  105
 Side 2 forced transition at x/c =  1.0000  148
BRO:  13.67758

   2   rms: 0.1218E-02   max: 0.2134E-01   D at  106  1
       a =  0.900      CL =  0.4953
      Cm = -0.0796     CD =  0.00715   =>   CDf =  0.00496    CDp =  0.00218

 Side 1  free  transition at x/c =  0.6243  105
 Side 2 forced transition at x/c =  1.0000  148
BRO:  13.67561

   3   rms: 0.2068E-03   max: 0.3463E-02   D at    4  1
       a =  0.900      CL =  0.4953
      Cm = -0.0796     CD =  0.00714   =>   CDf =  0.00495    CDp =  0.00219

 Side 1  free  transition at x/c =  0.6244  105
 Side 2 forced transition at x/c =  1.0000  148
BRO:  13.67574

   4   rms: 0.6225E-06   max: -.2347E-05   D at    6  1
       a =  0.900      CL =  0.4953
      Cm = -0.0796     CD =  0.00714   =>   CDf =  0.00495    CDp =  0.00219
      9.000    5.5131   0.007145   0.002035   0.002499   0.000464    0.6244     #

 Point added to stored polar  1
 Point written to save file  polar                                           
 Point written to dump file .bl                                             
 Calculating wake trajectory ...
 Calculating source influence matrix ...

 Solving BL system ...

 Side 1  free  transition at x/c =  0.6244  105
 Side 2 forced transition at x/c =  1.0000  148
BRO:  13.63473

   1   rms: 0.1787E-01   max: -.2333E-01   C at  148  2
       a =  1.000      CL =  0.5064
      Cm = -0.0796     CD =  0.00717   =>   CDf =  0.00495    CDp =  0.00222

 Side 1  free  transition at x/c =  0.6216  105
 Side 2 forced transition at x/c =  1.0000  148
BRO:  13.60980

   2   rms: 0.1410E-02   max: -.1676E-01   D at  106  1
       a =  1.000      CL =  0.5064
      Cm = -0.0796     CD =  0.00717   =>   CDf =  0.00497    CDp =  0.00220

 Side 1  free  transition at x/c =  0.6219  105
 Side 2 forced transition at x/c =  1.0000  148
BRO:  13.61374

   3   rms: 0.1009E-04   max: -.2002E-03   D at  108  1
       a =  1.000      CL =  0.5064
      Cm = -0.0796     CD =  0.00717   =>   CDf =  0.00497    CDp =  0.00221
      9.000    5.5263   0.007174   0.002042   0.002512   0.000470    0.6219     #

 Point added to stored polar  1
 Point written to save file  polar                                           
 Point written to dump file .bl                                             
 Calculating wake trajectory ...
 Calculating source influence matrix ...

 Solving BL system ...

 Side 1  free  transition at x/c =  0.6219  105
 Side 2 forced transition at x/c =  1.0000  148
BRO:  13.54619

   1   rms: 0.1782E-01   max: -.2259E-01   C at  148  2
       a =  1.100      CL =  0.5175
      Cm = -0.0796     CD =  0.00721   =>   CDf =  0.00497    CDp =  0.00224

 Side 1  free  transition at x/c =  0.6195  105
 Side 2 forced transition at x/c =  1.0000  148
BRO:  13.52449

   2   rms: 0.1281E-02   max: -.1372E-01   D at  105  1
       a =  1.100      CL =  0.5175
      Cm = -0.0796     CD =  0.00721   =>   CDf =  0.00500    CDp =  0.00221

 Side 1  free  transition at x/c =  0.6197  105
 Side 2 forced transition at x/c =  1.0000  148
BRO:  13.52823

   3   rms: 0.1560E-04   max: -.2562E-03   D at  108  1
       a =  1.100      CL =  0.5175
      Cm = -0.0796     CD =  0.00721   =>   CDf =  0.00499    CDp =  0.00222
      9.000    5.5301   0.007211   0.002049   0.002518   0.000469    0.6197     #

 Point added to stored polar  1
 Point written to save file  polar                                           
 Point written to dump file .bl                                             
 Calculating wake trajectory ...
 Calculating source influence matrix ...

 Solving BL system ...

 Side 1  free  transition at x/c =  0.6197  105
 Side 2 forced transition at x/c =  1.0000  148
BRO:  13.44110

   1   rms: 0.1791E-01   max: -.2194E-01   C at  148  2
       a =  1.200      CL =  0.5286
      Cm = -0.0796     CD =  0.00725   =>   CDf =  0.00499    CDp =  0.00226

 Side 1  free  transition at x/c =  0.6178  104
 Side 2 forced transition at x/c =  1.0000  148
BRO:  13.41300

   2   rms: 0.8200E-03   max: -.1278E-01   D at  105  1
       a =  1.200      CL =  0.5286
      Cm = -0.0796     CD =  0.00726   =>   CDf =  0.00503    CDp =  0.00222

 Side 1  free  transition at x/c =  0.6178  104
 Side 2 forced transition at x/c =  1.0000  148
BRO:  13.39666

   3   rms: 0.5036E-02   max: -.6802E-01   C at  104  1
       a =  1.200      CL =  0.5286
      Cm = -0.0796     CD =  0.00726   =>   CDf =  0.00507    CDp =  0.00219

 Side 1  free  transition at x/c =  0.6179  105
 Side 2 forced transition at x/c =  1.0000  148
BRO:  13.40710

   4   rms: 0.4539E-02   max: -.5559E-01   C at  105  1
       a =  1.200      CL =  0.5286
      Cm = -0.0796     CD =  0.00725   =>   CDf =  0.00507    CDp =  0.00219

 Side 1  free  transition at x/c =  0.6180  105
 Side 2 forced transition at x/c =  1.0000  148
BRO:  13.41931

   5   rms: 0.3104E-03   max: -.3876E-02   D at  108  1
       a =  1.200      CL =  0.5286
      Cm = -0.0796     CD =  0.00726   =>   CDf =  0.00503    CDp =  0.00223

 Side 1  free  transition at x/c =  0.6179  105
 Side 2 forced transition at x/c =  1.0000  148
BRO:  13.41855

   6   rms: 0.2523E-05   max: -.2698E-04   D at  108  1
       a =  1.200      CL =  0.5286
      Cm = -0.0796     CD =  0.00726   =>   CDf =  0.00503    CDp =  0.00223
      9.000    5.5186   0.007258   0.002057   0.002528   0.000471    0.6179     #

 Point added to stored polar  1
 Point written to save file  polar                                           
 Point written to dump file .bl                                             
 Calculating wake trajectory ...
 Calculating source influence matrix ...

 Solving BL system ...

 Side 1  free  transition at x/c =  0.6179  105
 Side 2 forced transition at x/c =  1.0000  148
BRO:  13.30321

   1   rms: 0.1809E-01   max: -.2114E-01   C at  148  2
       a =  1.300      CL =  0.5396
      Cm = -0.0796     CD =  0.00731   =>   CDf =  0.00503    CDp =  0.00228

 Side 1  free  transition at x/c =  0.6163  104
 Side 2 forced transition at x/c =  1.0000  148
BRO:  13.38687

   2   rms: 0.2362E-02   max: 0.5028E-01   D at  105  1
       a =  1.300      CL =  0.5397
      Cm = -0.0796     CD =  0.00728   =>   CDf =  0.00504    CDp =  0.00225

 Side 1  free  transition at x/c =  0.6153  104
 Side 2 forced transition at x/c =  1.0000  148
BRO:  13.37851

   3   rms: 0.3173E-03   max: -.3404E-02   D at  105  1
       a =  1.300      CL =  0.5397
      Cm = -0.0796     CD =  0.00728   =>   CDf =  0.00503    CDp =  0.00225

 Side 1  free  transition at x/c =  0.6153  104
 Side 2 forced transition at x/c =  1.0000  148
BRO:  13.37939

   4   rms: 0.3406E-05   max: 0.1333E-04   n at  129  2
       a =  1.300      CL =  0.5397
      Cm = -0.0796     CD =  0.00728   =>   CDf =  0.00503    CDp =  0.00225
      9.000    5.5428   0.007284   0.002064   0.002545   0.000482    0.6153     #

 Point added to stored polar  1
 Point written to save file  polar                                           
 Point written to dump file .bl                                             
 Calculating wake trajectory ...
 Calculating source influence matrix ...

 Solving BL system ...

 Side 1  free  transition at x/c =  0.6153  104
 Side 2 forced transition at x/c =  1.0000  148
BRO:  13.33385

   1   rms: 0.1766E-01   max: -.2168E-01   C at  148  2
       a =  1.400      CL =  0.5508
      Cm = -0.0796     CD =  0.00732   =>   CDf =  0.00503    CDp =  0.00229

 Side 1  free  transition at x/c =  0.6128  105
 Side 2 forced transition at x/c =  1.0000  147
BRO:  13.30985

   2   rms: 0.1508E-02   max: -.1472E-01   D at  106  1
       a =  1.400      CL =  0.5508
      Cm = -0.0796     CD =  0.00732   =>   CDf =  0.00505    CDp =  0.00226

 Side 1  free  transition at x/c =  0.6130  105
 Side 2 forced transition at x/c =  1.0000  147
BRO:  13.31389

   3   rms: 0.2247E-03   max: 0.3712E-02   D at    4  1
       a =  1.400      CL =  0.5508
      Cm = -0.0796     CD =  0.00732   =>   CDf =  0.00505    CDp =  0.00227

 Side 1  free  transition at x/c =  0.6130  105
 Side 2 forced transition at x/c =  1.0000  147
BRO:  13.31387

   4   rms: 0.1188E-06   max: -.2349E-05   D at    7  1
       a =  1.400      CL =  0.5508
      Cm = -0.0796     CD =  0.00732   =>   CDf =  0.00505    CDp =  0.00227
      9.000    5.5439   0.007318   0.002071   0.002554   0.000482    0.6130     #

 Point added to stored polar  1
 Point written to save file  polar                                           
 Point written to dump file .bl                                             
 Calculating wake trajectory ...
 Calculating source influence matrix ...

 Solving BL system ...

 Side 1  free  transition at x/c =  0.6130  105
 Side 2 forced transition at x/c =  1.0000  147
BRO:  13.24686

   1   rms: 0.1770E-01   max: -.2106E-01   C at  147  2
       a =  1.500      CL =  0.5619
      Cm = -0.0796     CD =  0.00736   =>   CDf =  0.00505    CDp =  0.00231

 Side 1  free  transition at x/c =  0.6108  105
 Side 2 forced transition at x/c =  1.0000  147
BRO:  13.22191

   2   rms: 0.1371E-02   max: -.1704E-01   D at  105  1
       a =  1.500      CL =  0.5619
      Cm = -0.0796     CD =  0.00736   =>   CDf =  0.00508    CDp =  0.00228

 Side 1  free  transition at x/c =  0.6110  105
 Side 2 forced transition at x/c =  1.0000  147
BRO:  13.22609

   3   rms: 0.2090E-04   max: -.2964E-03   D at  108  1
       a =  1.500      CL =  0.5619
      Cm = -0.0796     CD =  0.00736   =>   CDf =  0.00508    CDp =  0.00229
      9.000    5.5373   0.007362   0.002079   0.002560   0.000480    0.6110     #

 Point added to stored polar  1
 Point written to save file  polar                                           
 Point written to dump file .bl                                             
 Calculating wake trajectory ...
 Calculating source influence matrix ...

 Solving BL system ...

 Side 1  free  transition at x/c =  0.6110  105
 Side 2 forced transition at x/c =  1.0000  147
BRO:  13.13709

   1   rms: 0.1782E-01   max: -.2045E-01   C at  147  2
       a =  1.600      CL =  0.5730
      Cm = -0.0795     CD =  0.00741   =>   CDf =  0.00508    CDp =  0.00234

 Side 1  free  transition at x/c =  0.6093  104
 Side 2 forced transition at x/c =  1.0000  147
BRO:  13.16476

   2   rms: 0.1300E-02   max: 0.2466E-01   D at  105  1
       a =  1.600      CL =  0.5730
      Cm = -0.0795     CD =  0.00740   =>   CDf =  0.00510    CDp =  0.00230

 Side 1  free  transition at x/c =  0.6088  104
 Side 2 forced transition at x/c =  1.0000  147
BRO:  13.16217

   3   rms: 0.6945E-04   max: -.7855E-03   D at  105  1
       a =  1.600      CL =  0.5730
      Cm = -0.0795     CD =  0.00740   =>   CDf =  0.00509    CDp =  0.00231
      9.000    5.5441   0.007400   0.002087   0.002575   0.000489    0.6088     #

 Point added to stored polar  1
 Point written to save file  polar                                           
 Point written to dump file .bl                                             
 Calculating wake trajectory ...
 Calculating source influence matrix ...

 Solving BL system ...

 Side 1  free  transition at x/c =  0.6088  104
 Side 2 forced transition at x/c =  1.0000  147
BRO:  13.14011

   1   rms: 0.1751E-01   max: -.2100E-01   C at  147  2
       a =  1.700      CL =  0.5841
      Cm = -0.0795     CD =  0.00743   =>   CDf =  0.00509    CDp =  0.00234

 Side 1  free  transition at x/c =  0.6060  104
 Side 2 forced transition at x/c =  1.0000  147
BRO:  13.11135

   2   rms: 0.1556E-02   max: -.1847E-01   D at  105  1
       a =  1.700      CL =  0.5841
      Cm = -0.0795     CD =  0.00743   =>   CDf =  0.00510    CDp =  0.00233

 Side 1  free  transition at x/c =  0.6063  104
 Side 2 forced transition at x/c =  1.0000  147
BRO:  13.11595

   3   rms: 0.1264E-04   max: -.2513E-03   D at  107  1
       a =  1.700      CL =  0.5841
      Cm = -0.0795     CD =  0.00743   =>   CDf =  0.00510    CDp =  0.00234
      9.000    5.5515   0.007432   0.002094   0.002587   0.000493    0.6063     #

 Point added to stored polar  1
 Point written to save file  polar                                           
 Point written to dump file .bl                                             
 Calculating wake trajectory ...
 Calculating source influence matrix ...

 Solving BL system ...

 Side 1  free  transition at x/c =  0.6063  104
 Side 2 forced transition at x/c =  1.0000  147
BRO:  13.06598

   1   rms: 0.1754E-01   max: -.2036E-01   C at  147  2
       a =  1.800      CL =  0.5952
      Cm = -0.0795     CD =  0.00747   =>   CDf =  0.00508    CDp =  0.00239

 Side 1  free  transition at x/c =  0.6039  105
 Side 2 forced transition at x/c =  1.0000  146
BRO:  13.03984

   2   rms: 0.1672E-02   max: -.1783E-01   D at  105  1
       a =  1.800      CL =  0.5952
      Cm = -0.0795     CD =  0.00747   =>   CDf =  0.00512    CDp =  0.00235

 Side 1  free  transition at x/c =  0.6041  105
 Side 2 forced transition at x/c =  1.0000  146
BRO:  13.04473

   3   rms: 0.1536E-03   max: 0.2661E-02   D at    4  1
       a =  1.800      CL =  0.5952
      Cm = -0.0795     CD =  0.00747   =>   CDf =  0.00511    CDp =  0.00236

 Side 1  free  transition at x/c =  0.6041  105
 Side 2 forced transition at x/c =  1.0000  146
BRO:  13.04468

   4   rms: 0.1889E-06   max: 0.2460E-05   T at    6  1
       a =  1.800      CL =  0.5952
      Cm = -0.0795     CD =  0.00747   =>   CDf =  0.00511    CDp =  0.00236
      9.000    5.5390   0.007473   0.002102   0.002590   0.000488    0.6041     #

 Point added to stored polar  1
 Point written to save file  polar                                           
 Point written to dump file .bl                                             
 Calculating wake trajectory ...
 Calculating source influence matrix ...

 Solving BL system ...

 Side 1  free  transition at x/c =  0.6041  105
 Side 2 forced transition at x/c =  1.0000  146
BRO:  12.97259

   1   rms: 0.1775E-01   max: -.1981E-01   C at  146  2
       a =  1.900      CL =  0.6063
      Cm = -0.0795     CD =  0.00752   =>   CDf =  0.00511    CDp =  0.00240

 Side 1  free  transition at x/c =  0.6021  104
 Side 2 forced transition at x/c =  1.0000  146
BRO:  12.96004

   2   rms: 0.9098E-03   max: -.1186E-01   C at  104  1
       a =  1.900      CL =  0.6063
      Cm = -0.0795     CD =  0.00752   =>   CDf =  0.00514    CDp =  0.00237

 Side 1  free  transition at x/c =  0.6021  104
 Side 2 forced transition at x/c =  1.0000  146
BRO:  12.96220

   3   rms: 0.6165E-05   max: 0.6261E-04   D at  105  1
       a =  1.900      CL =  0.6063
      Cm = -0.0795     CD =  0.00752   =>   CDf =  0.00514    CDp =  0.00238
      9.000    5.5248   0.007520   0.002111   0.002601   0.000490    0.6021     #

 Point added to stored polar  1
 Point written to save file  polar                                           
 Point written to dump file .bl                                             
 Calculating wake trajectory ...
 Calculating source influence matrix ...

 Solving BL system ...

 Side 1  free  transition at x/c =  0.6021  104
 Side 2 forced transition at x/c =  1.0000  146
BRO:  12.96437

   1   rms: 0.1759E-01   max: -.2058E-01   C at  146  2
       a =  2.000      CL =  0.6174
      Cm = -0.0795     CD =  0.00754   =>   CDf =  0.00514    CDp =  0.00240

 Side 1  free  transition at x/c =  0.5989  104
 Side 2 forced transition at x/c =  1.0000  146
BRO:  12.92832

   2   rms: 0.1970E-02   max: -.2454E-01   D at  105  1
       a =  2.000      CL =  0.6174
      Cm = -0.0795     CD =  0.00755   =>   CDf =  0.00514    CDp =  0.00240

 Side 1  free  transition at x/c =  0.5993  104
 Side 2 forced transition at x/c =  1.0000  146
BRO:  12.93405

   3   rms: 0.1689E-04   max: -.3260E-03   D at  107  1
       a =  2.000      CL =  0.6174
      Cm = -0.0795     CD =  0.00755   =>   CDf =  0.00514    CDp =  0.00241
      9.000    5.5343   0.007548   0.002118   0.002614   0.000496    0.5993     #

 Point added to stored polar  1
 Point written to save file  polar                                           
 Point written to dump file .bl                                             
 Calculating wake trajectory ...
 Calculating source influence matrix ...

 Solving BL system ...

 Side 1  free  transition at x/c =  0.5993  104
 Side 2 forced transition at x/c =  1.0000  146
BRO:  12.89838

   1   rms: 0.1756E-01   max: -.1982E-01   C at  146  2
       a =  2.100      CL =  0.6284
      Cm = -0.0795     CD =  0.00758   =>   CDf =  0.00514    CDp =  0.00245

 Side 1  free  transition at x/c =  0.5965  104
 Side 2 forced transition at x/c =  1.0000  146
BRO:  12.86876

   2   rms: 0.1990E-02   max: -.2033E-01   D at  104  1
       a =  2.100      CL =  0.6284
      Cm = -0.0795     CD =  0.00759   =>   CDf =  0.00516    CDp =  0.00243

 Side 1  free  transition at x/c =  0.5968  104
 Side 2 forced transition at x/c =  1.0000  146
BRO:  12.87464

   3   rms: 0.3445E-04   max: -.5863E-03   D at  107  1
       a =  2.100      CL =  0.6284
      Cm = -0.0795     CD =  0.00759   =>   CDf =  0.00515    CDp =  0.00244
      9.000    5.5107   0.007587   0.002127   0.002616   0.000489    0.5968     #

 Point added to stored polar  1
 Point written to save file  polar                                           
 Point written to dump file .bl                                             
 Calculating wake trajectory ...
 Calculating source influence matrix ...

 Solving BL system ...

 Side 1  free  transition at x/c =  0.5968  104
 Side 2 forced transition at x/c =  1.0000  146
BRO:  12.81261

   1   rms: 0.1777E-01   max: -.1928E-01   C at  146  2
       a =  2.200      CL =  0.6395
      Cm = -0.0794     CD =  0.00763   =>   CDf =  0.00515    CDp =  0.00248

 Side 1  free  transition at x/c =  0.5946  103
 Side 2 forced transition at x/c =  1.0000  146
BRO:  12.78468

   2   rms: 0.1069E-02   max: -.1375E-01   D at  104  1
       a =  2.200      CL =  0.6395
      Cm = -0.0794     CD =  0.00764   =>   CDf =  0.00518    CDp =  0.00245

 Side 1  free  transition at x/c =  0.5947  103
 Side 2 forced transition at x/c =  1.0000  146
BRO:  12.78810

   3   rms: 0.1150E-04   max: 0.2554E-03   D at  104  1
       a =  2.200      CL =  0.6395
      Cm = -0.0794     CD =  0.00764   =>   CDf =  0.00518    CDp =  0.00246
      9.000    5.4798   0.007638   0.002136   0.002621   0.000485    0.5947     #

 Point added to stored polar  1
 Point written to save file  polar                                           
 Point written to dump file .bl                                             
 Calculating wake trajectory ...
 Calculating source influence matrix ...

 Solving BL system ...

 Side 1  free  transition at x/c =  0.5947  103
 Side 2 forced transition at x/c =  1.0000  146
BRO:  12.80743

   1   rms: 0.1771E-01   max: -.2014E-01   C at  146  2
       a =  2.300      CL =  0.6506
      Cm = -0.0794     CD =  0.00766   =>   CDf =  0.00516    CDp =  0.00250

 Side 1  free  transition at x/c =  0.5912  104
 Side 2 forced transition at x/c =  1.0000  145
BRO:  12.76438

   2   rms: 0.2300E-02   max: -.2844E-01   D at  105  1
       a =  2.300      CL =  0.6505
      Cm = -0.0794     CD =  0.00766   =>   CDf =  0.00518    CDp =  0.00249

 Side 1  free  transition at x/c =  0.5917  104
 Side 2 forced transition at x/c =  1.0000  145
BRO:  12.77089

   3   rms: 0.9318E-04   max: 0.1492E-02   D at    4  1
       a =  2.300      CL =  0.6505
      Cm = -0.0794     CD =  0.00766   =>   CDf =  0.00517    CDp =  0.00250
      9.000    5.4842   0.007664   0.002144   0.002634   0.000490    0.5917     #

 Point added to stored polar  1
 Point written to save file  polar                                           
 Point written to dump file .bl                                             
 Calculating wake trajectory ...
 Calculating source influence matrix ...

 Solving BL system ...

 Side 1  free  transition at x/c =  0.5917  104
 Side 2 forced transition at x/c =  1.0000  145
BRO:  12.74319

   1   rms: 0.1759E-01   max: -.1926E-01   C at  145  2
       a =  2.400      CL =  0.6616
      Cm = -0.0794     CD =  0.00770   =>   CDf =  0.00517    CDp =  0.00253

 Side 1  free  transition at x/c =  0.5888  104
 Side 2 forced transition at x/c =  1.0000  145
BRO:  12.71042

   2   rms: 0.2135E-02   max: -.2175E-01   D at  104  1
       a =  2.400      CL =  0.6616
      Cm = -0.0794     CD =  0.00770   =>   CDf =  0.00519    CDp =  0.00251

 Side 1  free  transition at x/c =  0.5891  104
 Side 2 forced transition at x/c =  1.0000  145
BRO:  12.71671

   3   rms: 0.4050E-04   max: -.6967E-03   D at  107  1
       a =  2.400      CL =  0.6616
      Cm = -0.0794     CD =  0.00770   =>   CDf =  0.00518    CDp =  0.00253
      9.000    5.4527   0.007704   0.002153   0.002633   0.000480    0.5891     #

 Point added to stored polar  1
 Point written to save file  polar                                           
 Point written to dump file .bl                                             
 Calculating wake trajectory ...
 Calculating source influence matrix ...

 Solving BL system ...

 Side 1  free  transition at x/c =  0.5891  104
 Side 2 forced transition at x/c =  1.0000  145
BRO:  12.65891

   1   rms: 0.1781E-01   max: -.1871E-01   C at  145  2
       a =  2.500      CL =  0.6726
      Cm = -0.0794     CD =  0.00775   =>   CDf =  0.00518    CDp =  0.00257

 Side 1  free  transition at x/c =  0.5867  103
 Side 2 forced transition at x/c =  1.0000  145
BRO:  12.63789

   2   rms: 0.9776E-03   max: -.1277E-01   C at  103  1
       a =  2.500      CL =  0.6726
      Cm = -0.0794     CD =  0.00775   =>   CDf =  0.00521    CDp =  0.00255

 Side 1  free  transition at x/c =  0.5868  103
 Side 2 forced transition at x/c =  1.0000  145
BRO:  12.64083

   3   rms: 0.9514E-05   max: 0.1296E-03   D at  104  1
       a =  2.500      CL =  0.6726
      Cm = -0.0794     CD =  0.00775   =>   CDf =  0.00520    CDp =  0.00255
      9.000    5.4155   0.007752   0.002163   0.002638   0.000475    0.5868     #

 Point added to stored polar  1
 Point written to save file  polar                                           
 Point written to dump file .bl                                             
 Calculating wake trajectory ...
 Calculating source influence matrix ...

 Solving BL system ...

 Side 1  free  transition at x/c =  0.5868  103
 Side 2 forced transition at x/c =  1.0000  145
BRO:  12.66188

   1   rms: 0.1769E-01   max: -.1946E-01   C at  145  2
       a =  2.600      CL =  0.6837
      Cm = -0.0794     CD =  0.00777   =>   CDf =  0.00520    CDp =  0.00257

 Side 1  free  transition at x/c =  0.5831  103
 Side 2 forced transition at x/c =  1.0000  145
BRO:  12.61736

   2   rms: 0.2517E-02   max: -.3054E-01   D at  104  1
       a =  2.600      CL =  0.6837
      Cm = -0.0794     CD =  0.00778   =>   CDf =  0.00520    CDp =  0.00258

 Side 1  free  transition at x/c =  0.5837  103
 Side 2 forced transition at x/c =  1.0000  145
BRO:  12.62444

   3   rms: 0.3075E-04   max: -.6024E-03   D at  106  1
       a =  2.600      CL =  0.6837
      Cm = -0.0794     CD =  0.00778   =>   CDf =  0.00519    CDp =  0.00259
      9.000    5.4095   0.007781   0.002171   0.002647   0.000476    0.5837     #

 Point added to stored polar  1
 Point written to save file  polar                                           
 Point written to dump file .bl                                             
 Calculating wake trajectory ...
 Calculating source influence matrix ...

 Solving BL system ...

 Side 1  free  transition at x/c =  0.5837  103
 Side 2 forced transition at x/c =  1.0000  145
BRO:  12.59813

   1   rms: 0.1768E-01   max: -.1870E-01   C at  145  2
       a =  2.700      CL =  0.6947
      Cm = -0.0793     CD =  0.00782   =>   CDf =  0.00519    CDp =  0.00263

 Side 1  free  transition at x/c =  0.5806  103
 Side 2 forced transition at x/c =  1.0000  145
BRO:  12.56185

   2   rms: 0.2496E-02   max: -.2729E-01   D at  103  1
       a =  2.700      CL =  0.6947
      Cm = -0.0793     CD =  0.00782   =>   CDf =  0.00522    CDp =  0.00260

 Side 1  free  transition at x/c =  0.5810  103
 Side 2 forced transition at x/c =  1.0000  145
BRO:  12.56901

   3   rms: 0.6329E-04   max: -.1029E-02   D at  106  1
       a =  2.700      CL =  0.6947
      Cm = -0.0793     CD =  0.00782   =>   CDf =  0.00520    CDp =  0.00262
      9.000    5.3647   0.007822   0.002181   0.002642   0.000461    0.5810     #

 Point added to stored polar  1
 Point written to save file  polar                                           
 Point written to dump file .bl                                             
 Calculating wake trajectory ...
 Calculating source influence matrix ...

 Solving BL system ...

 Side 1  free  transition at x/c =  0.5810  103
 Side 2 forced transition at x/c =  1.0000  145
BRO:  12.50826

   1   rms: 0.1812E-01   max: -.2157E-01   n at  144  2
       a =  2.800      CL =  0.7056
      Cm = -0.0793     CD =  0.00787   =>   CDf =  0.00517    CDp =  0.00270

 Side 1  free  transition at x/c =  0.5786  103
 Side 2 forced transition at x/c =  1.0000  144
BRO:  12.51670

   2   rms: 0.1275E-02   max: -.1925E-01   C at  103  1
       a =  2.800      CL =  0.7057
      Cm = -0.0793     CD =  0.00787   =>   CDf =  0.00522    CDp =  0.00265

 Side 1  free  transition at x/c =  0.5782  103
 Side 2 forced transition at x/c =  1.0000  144
BRO:  12.51663

   3   rms: 0.2058E-03   max: -.3201E-02   D at    4  1
       a =  2.800      CL =  0.7057
      Cm = -0.0793     CD =  0.00787   =>   CDf =  0.00521    CDp =  0.00266

 Side 1  free  transition at x/c =  0.5783  103
 Side 2 forced transition at x/c =  1.0000  144
BRO:  12.51672

   4   rms: 0.6681E-06   max: 0.3361E-05   n at  143  2
       a =  2.800      CL =  0.7057
      Cm = -0.0793     CD =  0.00787   =>   CDf =  0.00521    CDp =  0.00266
      9.000    5.3300   0.007865   0.002191   0.002650   0.000459    0.5783     #

 Point added to stored polar  1
 Point written to save file  polar                                           
 Point written to dump file .bl                                             
 Calculating wake trajectory ...
 Calculating source influence matrix ...

 Solving BL system ...

 Side 1  free  transition at x/c =  0.5783  103
 Side 2 forced transition at x/c =  1.0000  144
BRO:  12.52781

   1   rms: 0.1791E-01   max: -.2497E-01   n at  143  2
       a =  2.900      CL =  0.7167
      Cm = -0.0793     CD =  0.00789   =>   CDf =  0.00521    CDp =  0.00268

 Side 1  free  transition at x/c =  0.5745  103
 Side 2 forced transition at x/c =  1.0000  144
BRO:  12.48467

   2   rms: 0.2716E-02   max: -.2976E-01   D at  104  1
       a =  2.900      CL =  0.7167
      Cm = -0.0793     CD =  0.00790   =>   CDf =  0.00522    CDp =  0.00268

 Side 1  free  transition at x/c =  0.5751  103
 Side 2 forced transition at x/c =  1.0000  144
BRO:  12.49201

   3   rms: 0.5121E-04   max: -.1041E-02   D at  106  1
       a =  2.900      CL =  0.7167
      Cm = -0.0793     CD =  0.00790   =>   CDf =  0.00520    CDp =  0.00269
      9.000    5.3036   0.007898   0.002200   0.002651   0.000451    0.5751     #

 Point added to stored polar  1
 Point written to save file  polar                                           
 Point written to dump file .bl                                             
 Calculating wake trajectory ...
 Calculating source influence matrix ...

 Solving BL system ...

 Side 1  free  transition at x/c =  0.5751  103
 Side 2 forced transition at x/c =  1.0000  144
BRO:  12.45906

   1   rms: 0.1805E-01   max: -.2473E-01   n at  143  2
       a =  3.000      CL =  0.7277
      Cm = -0.0792     CD =  0.00794   =>   CDf =  0.00521    CDp =  0.00273

 Side 1  free  transition at x/c =  0.5721  103
 Side 2 forced transition at x/c =  1.0000  144
BRO:  12.41831

   2   rms: 0.2297E-02   max: -.2820E-01   D at  103  1
       a =  3.000      CL =  0.7276
      Cm = -0.0792     CD =  0.00794   =>   CDf =  0.00524    CDp =  0.00271

 Side 1  free  transition at x/c =  0.5724  103
 Side 2 forced transition at x/c =  1.0000  144
BRO:  12.42455

   3   rms: 0.6610E-04   max: -.8739E-03   D at  106  1
       a =  3.000      CL =  0.7276
      Cm = -0.0792     CD =  0.00795   =>   CDf =  0.00522    CDp =  0.00272
      9.000    5.2420   0.007946   0.002211   0.002649   0.000438    0.5724     #

 Point added to stored polar  1
 Point written to save file  polar                                           
 Point written to dump file .bl                                             
 Calculating wake trajectory ...
 Calculating source influence matrix ...

 Solving BL system ...

 Side 1  free  transition at x/c =  0.5724  103
 Side 2 forced transition at x/c =  1.0000  144
BRO:  12.34569

   1   rms: 0.1834E-01   max: -.2166E-01   n at  143  2
       a =  3.100      CL =  0.7386
      Cm = -0.0792     CD =  0.00801   =>   CDf =  0.00522    CDp =  0.00278

 Side 1  free  transition at x/c =  0.5701  102
 Side 2 forced transition at x/c =  1.0000  144
BRO:  12.41106

   2   rms: 0.2243E-02   max: 0.4816E-01   D at  103  1
       a =  3.100      CL =  0.7387
      Cm = -0.0792     CD =  0.00798   =>   CDf =  0.00522    CDp =  0.00276

 Side 1  free  transition at x/c =  0.5691  102
 Side 2 forced transition at x/c =  1.0000  144
BRO:  12.40364

   3   rms: 0.3397E-03   max: -.3533E-02   D at  103  1
       a =  3.100      CL =  0.7387
      Cm = -0.0792     CD =  0.00798   =>   CDf =  0.00522    CDp =  0.00276

 Side 1  free  transition at x/c =  0.5692  102
 Side 2 forced transition at x/c =  1.0000  144
BRO:  12.40457

   4   rms: 0.5213E-05   max: 0.2814E-04   n at  143  2
       a =  3.100      CL =  0.7387
      Cm = -0.0792     CD =  0.00798   =>   CDf =  0.00521    CDp =  0.00277
      9.000    5.2226   0.007980   0.002220   0.002654   0.000434    0.5692     #

 Point added to stored polar  1
 Point written to save file  polar                                           
 Point written to dump file .bl                                             
 Calculating wake trajectory ...
 Calculating source influence matrix ...

 Solving BL system ...

 Side 1  free  transition at x/c =  0.5692  102
 Side 2 forced transition at x/c =  1.0000  144
BRO:  12.39752

   1   rms: 0.1763E-01   max: -.1796E-01   C at  144  2
       a =  3.200      CL =  0.7497
      Cm = -0.0792     CD =  0.00802   =>   CDf =  0.00517    CDp =  0.00284

 Side 1  free  transition at x/c =  0.5658  103
 Side 2 forced transition at x/c =  1.0000  143
BRO:  12.35754

   2   rms: 0.2627E-02   max: -.2607E-01   C at  103  1
       a =  3.200      CL =  0.7496
      Cm = -0.0792     CD =  0.00802   =>   CDf =  0.00523    CDp =  0.00279

 Side 1  free  transition at x/c =  0.5662  103
 Side 2 forced transition at x/c =  1.0000  143
BRO:  12.36428

   3   rms: 0.6353E-03   max: -.1045E-01   D at    4  1
       a =  3.200      CL =  0.7496
      Cm = -0.0792     CD =  0.00802   =>   CDf =  0.00521    CDp =  0.00281

 Side 1  free  transition at x/c =  0.5662  103
 Side 2 forced transition at x/c =  1.0000  143
BRO:  12.36417

   4   rms: 0.8778E-06   max: 0.1259E-04   D at    8  1
       a =  3.200      CL =  0.7496
      Cm = -0.0792     CD =  0.00802   =>   CDf =  0.00521    CDp =  0.00281
      9.000    5.1805   0.008021   0.002231   0.002650   0.000419    0.5662     #

 Point added to stored polar  1
 Point written to save file  polar                                           
 Point written to dump file .bl                                             
 Calculating wake trajectory ...
 Calculating source influence matrix ...

 Solving BL system ...

 Side 1  free  transition at x/c =  0.5662  103
 Side 2 forced transition at x/c =  1.0000  143
BRO:  12.31823

   1   rms: 0.1779E-01   max: -.1756E-01   C at  143  2
       a =  3.300      CL =  0.7606
      Cm = -0.0791     CD =  0.00807   =>   CDf =  0.00522    CDp =  0.00285

 Side 1  free  transition at x/c =  0.5636  102
 Side 2 forced transition at x/c =  1.0000  143
BRO:  12.30342

   2   rms: 0.9471E-03   max: -.1608E-01   C at  102  1
       a =  3.300      CL =  0.7606
      Cm = -0.0791     CD =  0.00807   =>   CDf =  0.00523    CDp =  0.00284

 Side 1  free  transition at x/c =  0.5635  102
 Side 2 forced transition at x/c =  1.0000  143
BRO:  12.30507

   3   rms: 0.3135E-05   max: 0.3220E-04   D at  103  1
       a =  3.300      CL =  0.7606
      Cm = -0.0791     CD =  0.00807   =>   CDf =  0.00523    CDp =  0.00284
      9.000    5.1291   0.008070   0.002241   0.002653   0.000411    0.5635     #

 Point added to stored polar  1
 Point written to save file  polar                                           
 Point written to dump file .bl                                             
 Calculating wake trajectory ...
 Calculating source influence matrix ...

 Solving BL system ...

 Side 1  free  transition at x/c =  0.5635  102
 Side 2 forced transition at x/c =  1.0000  143
BRO:  12.33108

   1   rms: 0.1743E-01   max: -.1778E-01   C at  143  2
       a =  3.400      CL =  0.7716
      Cm = -0.0791     CD =  0.00810   =>   CDf =  0.00523    CDp =  0.00287

 Side 1  free  transition at x/c =  0.5596  102
 Side 2 forced transition at x/c =  1.0000  143
BRO:  12.28446

   2   rms: 0.2784E-02   max: -.3058E-01   D at  103  1
       a =  3.400      CL =  0.7716
      Cm = -0.0791     CD =  0.00810   =>   CDf =  0.00523    CDp =  0.00287

 Side 1  free  transition at x/c =  0.5602  102
 Side 2 forced transition at x/c =  1.0000  143
BRO:  12.29150

   3   rms: 0.4903E-04   max: -.1004E-02   D at  105  1
       a =  3.400      CL =  0.7716
      Cm = -0.0791     CD =  0.00810   =>   CDf =  0.00521    CDp =  0.00289
      9.000    5.1085   0.008104   0.002251   0.002655   0.000404    0.5602     #

 Point added to stored polar  1
 Point written to save file  polar                                           
 Point written to dump file .bl                                             
 Calculating wake trajectory ...
 Calculating source influence matrix ...

 Solving BL system ...

 Side 1  free  transition at x/c =  0.5601  102
 Side 2 forced transition at x/c =  1.0000  143
BRO:  12.26948

   1   rms: 0.1750E-01   max: -.1739E-01   C at  143  2
       a =  3.500      CL =  0.7826
      Cm = -0.0791     CD =  0.00815   =>   CDf =  0.00521    CDp =  0.00293

 Side 1  free  transition at x/c =  0.5569  102
 Side 2 forced transition at x/c =  1.0000  143
BRO:  12.22629

   2   rms: 0.2512E-02   max: -.2885E-01   D at  102  1
       a =  3.500      CL =  0.7825
      Cm = -0.0791     CD =  0.00815   =>   CDf =  0.00524    CDp =  0.00291

 Side 1  free  transition at x/c =  0.5574  102
 Side 2 forced transition at x/c =  1.0000  143
BRO:  12.23240

   3   rms: 0.7761E-04   max: -.1096E-02   D at  105  1
       a =  3.500      CL =  0.7825
      Cm = -0.0791     CD =  0.00815   =>   CDf =  0.00522    CDp =  0.00293
      9.000    5.0514   0.008153   0.002263   0.002654   0.000391    0.5574     #

 Point added to stored polar  1
 Point written to save file  polar                                           
 Point written to dump file .bl                                             
 Calculating wake trajectory ...
 Calculating source influence matrix ...

 Solving BL system ...

 Side 1  free  transition at x/c =  0.5574  102
 Side 2 forced transition at x/c =  1.0000  143
BRO:  12.16101

   1   rms: 0.1797E-01   max: -.1711E-01   C at  143  2
       a =  3.600      CL =  0.7934
      Cm = -0.0790     CD =  0.00822   =>   CDf =  0.00523    CDp =  0.00299

 Side 1  free  transition at x/c =  0.5548  101
 Side 2 forced transition at x/c =  1.0000  143
BRO:  12.21619

   2   rms: 0.1886E-02   max: 0.3767E-01   D at  102  1
       a =  3.600      CL =  0.7935
      Cm = -0.0791     CD =  0.00819   =>   CDf =  0.00522    CDp =  0.00297

 Side 1  free  transition at x/c =  0.5540  101
 Side 2 forced transition at x/c =  1.0000  143
BRO:  12.21119

   3   rms: 0.2798E-03   max: -.3074E-02   C at  101  1
       a =  3.600      CL =  0.7935
      Cm = -0.0791     CD =  0.00819   =>   CDf =  0.00522    CDp =  0.00298

 Side 1  free  transition at x/c =  0.5540  101
 Side 2 forced transition at x/c =  1.0000  143
BRO:  12.21195

   4   rms: 0.1742E-05   max: -.7698E-05   D at  104  1
       a =  3.600      CL =  0.7935
      Cm = -0.0791     CD =  0.00819   =>   CDf =  0.00521    CDp =  0.00298
      9.000    5.0201   0.008192   0.002273   0.002656   0.000383    0.5540     #

 Point added to stored polar  1
 Point written to save file  polar                                           
 Point written to dump file .bl                                             
 Calculating wake trajectory ...
 Calculating source influence matrix ...

 Solving BL system ...

 Side 1  free  transition at x/c =  0.5540  101
 Side 2 forced transition at x/c =  1.0000  143
BRO:  12.21234

   1   rms: 0.1745E-01   max: -.1720E-01   C at  143  2
       a =  3.700      CL =  0.8045
      Cm = -0.0790     CD =  0.00823   =>   CDf =  0.00516    CDp =  0.00307

 Side 1  free  transition at x/c =  0.5503  102
 Side 2 forced transition at x/c =  1.0000  142
BRO:  12.16907

   2   rms: 0.3355E-02   max: -.3216E-01   C at  102  1
       a =  3.700      CL =  0.8044
      Cm = -0.0790     CD =  0.00823   =>   CDf =  0.00523    CDp =  0.00301

 Side 1  free  transition at x/c =  0.5508  102
 Side 2 forced transition at x/c =  1.0000  142
BRO:  12.17610

   3   rms: 0.8492E-03   max: -.1324E-01   D at    4  1
       a =  3.700      CL =  0.8045
      Cm = -0.0790     CD =  0.00824   =>   CDf =  0.00521    CDp =  0.00303

 Side 1  free  transition at x/c =  0.5508  102
 Side 2 forced transition at x/c =  1.0000  142
BRO:  12.17593

   4   rms: 0.1384E-05   max: 0.2335E-04   D at    8  1
       a =  3.700      CL =  0.8045
      Cm = -0.0790     CD =  0.00824   =>   CDf =  0.00521    CDp =  0.00303
      9.000    4.9740   0.008236   0.002284   0.002655   0.000371    0.5508     #

 Point added to stored polar  1
 Point written to save file  polar                                           
 Point written to dump file .bl                                             
 Calculating wake trajectory ...
 Calculating source influence matrix ...

 Solving BL system ...

 Side 1  free  transition at x/c =  0.5508  102
 Side 2 forced transition at x/c =  1.0000  142
BRO:  12.13230

   1   rms: 0.1782E-01   max: -.1705E-01   C at  142  2
       a =  3.800      CL =  0.8153
      Cm = -0.0790     CD =  0.00829   =>   CDf =  0.00521    CDp =  0.00308

 Side 1  free  transition at x/c =  0.5479  101
 Side 2 forced transition at x/c =  1.0000  142
BRO:  12.12951

   2   rms: 0.1183E-02   max: -.2021E-01   C at  101  1
       a =  3.800      CL =  0.8154
      Cm = -0.0790     CD =  0.00828   =>   CDf =  0.00522    CDp =  0.00306

 Side 1  free  transition at x/c =  0.5477  101
 Side 2 forced transition at x/c =  1.0000  142
BRO:  12.13043

   3   rms: 0.1896E-04   max: -.1860E-03   D at  102  1
       a =  3.800      CL =  0.8154
      Cm = -0.0790     CD =  0.00828   =>   CDf =  0.00521    CDp =  0.00307
      9.000    4.9199   0.008284   0.002296   0.002652   0.000356    0.5477     #

 Point added to stored polar  1
 Point written to save file  polar                                           
 Point written to dump file .bl                                             
 Calculating wake trajectory ...
 Calculating source influence matrix ...

 Solving BL system ...

 Side 1  free  transition at x/c =  0.5477  101
 Side 2 forced transition at x/c =  1.0000  142
BRO:  12.15347

   1   rms: 0.1745E-01   max: -.1694E-01   C at  142  2
       a =  3.900      CL =  0.8264
      Cm = -0.0790     CD =  0.00832   =>   CDf =  0.00521    CDp =  0.00310

 Side 1  free  transition at x/c =  0.5434  101
 Side 2 forced transition at x/c =  1.0000  142
BRO:  12.10595

   2   rms: 0.3380E-02   max: -.3771E-01   C at  101  1
       a =  3.900      CL =  0.8263
      Cm = -0.0789     CD =  0.00832   =>   CDf =  0.00522    CDp =  0.00310

 Side 1  free  transition at x/c =  0.5442  101
 Side 2 forced transition at x/c =  1.0000  142
BRO:  12.11329

   3   rms: 0.1058E-03   max: -.1998E-02   D at  104  1
       a =  3.900      CL =  0.8263
      Cm = -0.0789     CD =  0.00832   =>   CDf =  0.00520    CDp =  0.00312

 Side 1  free  transition at x/c =  0.5441  101
 Side 2 forced transition at x/c =  1.0000  142
BRO:  12.11314

   4   rms: 0.6840E-06   max: -.3998E-05   D at  104  1
       a =  3.900      CL =  0.8263
      Cm = -0.0789     CD =  0.00832   =>   CDf =  0.00520    CDp =  0.00312
      9.000    4.8819   0.008324   0.002307   0.002651   0.000344    0.5441     #

 Point added to stored polar  1
 Point written to save file  polar                                           
 Point written to dump file .bl                                             
 Calculating wake trajectory ...
 Calculating source influence matrix ...

 Solving BL system ...

 Side 1  free  transition at x/c =  0.5441  101
 Side 2 forced transition at x/c =  1.0000  142
BRO:  12.08706

   1   rms: 0.1776E-01   max: -.1691E-01   C at  142  2
       a =  4.000      CL =  0.8372
      Cm = -0.0789     CD =  0.00837   =>   CDf =  0.00520    CDp =  0.00317

 Side 1  free  transition at x/c =  0.5408  100
 Side 2 forced transition at x/c =  1.0000  142
BRO:  12.04882

   2   rms: 0.1428E-02   max: -.1951E-01   C at  100  1
       a =  4.000      CL =  0.8372
      Cm = -0.0789     CD =  0.00838   =>   CDf =  0.00522    CDp =  0.00316

 Side 1  free  transition at x/c =  0.5410  100
 Side 2 forced transition at x/c =  1.0000  142
BRO:  12.05273

   3   rms: 0.2321E-04   max: 0.2768E-03   D at  101  1
       a =  4.000      CL =  0.8372
      Cm = -0.0789     CD =  0.00838   =>   CDf =  0.00521    CDp =  0.00317
      9.000    4.8159   0.008379   0.002320   0.002644   0.000324    0.5410     #

 Point added to stored polar  1
 Point written to save file  polar                                           
 Point written to dump file .bl                                             
 Calculating wake trajectory ...
 Calculating source influence matrix ...

 Solving BL system ...

 Side 1  free  transition at x/c =  0.5410  100
 Side 2 forced transition at x/c =  1.0000  142
BRO:  12.09714

   1   rms: 0.1759E-01   max: -.1664E-01   C at  142  2
       a =  4.100      CL =  0.8482
      Cm = -0.0789     CD =  0.00841   =>   CDf =  0.00515    CDp =  0.00326

 Side 1  free  transition at x/c =  0.5363  101
 Side 2 forced transition at x/c =  1.0000  141
BRO:  12.04273

   2   rms: 0.4116E-02   max: -.4238E-01   C at  101  1
       a =  4.100      CL =  0.8481
      Cm = -0.0789     CD =  0.00841   =>   CDf =  0.00521    CDp =  0.00320

 Side 1  free  transition at x/c =  0.5371  101
 Side 2 forced transition at x/c =  1.0000  141
BRO:  12.04999

   3   rms: 0.1099E-02   max: -.1843E-01   D at    4  1
       a =  4.100      CL =  0.8481
      Cm = -0.0789     CD =  0.00842   =>   CDf =  0.00519    CDp =  0.00323

 Side 1  free  transition at x/c =  0.5371  101
 Side 2 forced transition at x/c =  1.0000  141
BRO:  12.04991

   4   rms: 0.2966E-05   max: 0.4708E-04   D at    8  1
       a =  4.100      CL =  0.8481
      Cm = -0.0789     CD =  0.00842   =>   CDf =  0.00519    CDp =  0.00323
      9.000    4.7773   0.008416   0.002331   0.002644   0.000313    0.5371     #

 Point added to stored polar  1
 Point written to save file  polar                                           
 Point written to dump file .bl                                             
 Calculating wake trajectory ...
 Calculating source influence matrix ...

 Solving BL system ...

 Side 1  free  transition at x/c =  0.5371  101
 Side 2 forced transition at x/c =  1.0000  141
BRO:  12.03467

   1   rms: 0.1777E-01   max: -.1672E-01   C at  141  2
       a =  4.200      CL =  0.8590
      Cm = -0.0788     CD =  0.00846   =>   CDf =  0.00519    CDp =  0.00328

 Side 1  free  transition at x/c =  0.5334  100
 Side 2 forced transition at x/c =  1.0000  141
BRO:  11.97856

   2   rms: 0.1872E-02   max: -.2028E-01   D at  101  1
       a =  4.200      CL =  0.8589
      Cm = -0.0788     CD =  0.00847   =>   CDf =  0.00521    CDp =  0.00327

 Side 1  free  transition at x/c =  0.5337  100
 Side 2 forced transition at x/c =  1.0000  141
BRO:  11.97426

   3   rms: 0.4373E-02   max: -.6680E-01   C at  100  1
       a =  4.200      CL =  0.8589
      Cm = -0.0788     CD =  0.00847   =>   CDf =  0.00523    CDp =  0.00324

 Side 1  free  transition at x/c =  0.5338  100
 Side 2 forced transition at x/c =  1.0000  141
BRO:  11.97535

   4   rms: 0.4167E-02   max: -.6559E-01   C at  100  1
       a =  4.200      CL =  0.8589
      Cm = -0.0788     CD =  0.00847   =>   CDf =  0.00523    CDp =  0.00324

 Side 1  free  transition at x/c =  0.5338  100
 Side 2 forced transition at x/c =  1.0000  141
BRO:  11.97512

   5   rms: 0.4209E-02   max: -.6584E-01   C at  100  1
       a =  4.200      CL =  0.8589
      Cm = -0.0788     CD =  0.00847   =>   CDf =  0.00523    CDp =  0.00324

 Side 1  free  transition at x/c =  0.5338  100
 Side 2 forced transition at x/c =  1.0000  141
BRO:  11.97517

   6   rms: 0.4201E-02   max: -.6579E-01   C at  100  1
       a =  4.200      CL =  0.8589
      Cm = -0.0788     CD =  0.00847   =>   CDf =  0.00523    CDp =  0.00324

 Side 1  free  transition at x/c =  0.5338  100
 Side 2 forced transition at x/c =  1.0000  141
BRO:  11.97516

   7   rms: 0.4203E-02   max: -.6580E-01   C at  100  1
       a =  4.200      CL =  0.8589
      Cm = -0.0788     CD =  0.00847   =>   CDf =  0.00523    CDp =  0.00324

 Side 1  free  transition at x/c =  0.5338  100
 Side 2 forced transition at x/c =  1.0000  141
BRO:  11.97516

   8   rms: 0.4202E-02   max: -.6580E-01   C at  100  1
       a =  4.200      CL =  0.8589
      Cm = -0.0788     CD =  0.00847   =>   CDf =  0.00523    CDp =  0.00324

 Side 1  free  transition at x/c =  0.5338  100
 Side 2 forced transition at x/c =  1.0000  141
BRO:  11.97516

   9   rms: 0.4202E-02   max: -.6580E-01   C at  100  1
       a =  4.200      CL =  0.8589
      Cm = -0.0788     CD =  0.00847   =>   CDf =  0.00523    CDp =  0.00324

 Side 1  free  transition at x/c =  0.5338  100
 Side 2 forced transition at x/c =  1.0000  141
BRO:  11.97516

  10   rms: 0.4202E-02   max: -.6580E-01   C at  100  1
       a =  4.200      CL =  0.8589
      Cm = -0.0788     CD =  0.00847   =>   CDf =  0.00523    CDp =  0.00324

 Side 1  free  transition at x/c =  0.5338  100
 Side 2 forced transition at x/c =  1.0000  141
BRO:  11.97516

  11   rms: 0.4202E-02   max: -.6580E-01   C at  100  1
       a =  4.200      CL =  0.8589
      Cm = -0.0788     CD =  0.00847   =>   CDf =  0.00523    CDp =  0.00324

 Side 1  free  transition at x/c =  0.5338  100
 Side 2 forced transition at x/c =  1.0000  141
BRO:  11.97516

  12   rms: 0.4202E-02   max: -.6580E-01   C at  100  1
       a =  4.200      CL =  0.8589
      Cm = -0.0788     CD =  0.00847   =>   CDf =  0.00523    CDp =  0.00324

 Side 1  free  transition at x/c =  0.5338  100
 Side 2 forced transition at x/c =  1.0000  141
BRO:  11.97516

  13   rms: 0.4202E-02   max: -.6580E-01   C at  100  1
       a =  4.200      CL =  0.8589
      Cm = -0.0788     CD =  0.00847   =>   CDf =  0.00523    CDp =  0.00324

 Side 1  free  transition at x/c =  0.5338  100
 Side 2 forced transition at x/c =  1.0000  141
BRO:  11.97516

  14   rms: 0.4202E-02   max: -.6580E-01   C at  100  1
       a =  4.200      CL =  0.8589
      Cm = -0.0788     CD =  0.00847   =>   CDf =  0.00523    CDp =  0.00324

 Side 1  free  transition at x/c =  0.5338  100
 Side 2 forced transition at x/c =  1.0000  141
BRO:  11.97516

  15   rms: 0.4202E-02   max: -.6580E-01   C at  100  1
       a =  4.200      CL =  0.8589
      Cm = -0.0788     CD =  0.00847   =>   CDf =  0.00523    CDp =  0.00324

 Side 1  free  transition at x/c =  0.5338  100
 Side 2 forced transition at x/c =  1.0000  141
BRO:  11.97516

  16   rms: 0.4202E-02   max: -.6580E-01   C at  100  1
       a =  4.200      CL =  0.8589
      Cm = -0.0788     CD =  0.00847   =>   CDf =  0.00523    CDp =  0.00324

 Side 1  free  transition at x/c =  0.5338  100
 Side 2 forced transition at x/c =  1.0000  141
BRO:  11.97516

  17   rms: 0.4202E-02   max: -.6580E-01   C at  100  1
       a =  4.200      CL =  0.8589
      Cm = -0.0788     CD =  0.00847   =>   CDf =  0.00523    CDp =  0.00324

 Side 1  free  transition at x/c =  0.5338  100
 Side 2 forced transition at x/c =  1.0000  141
BRO:  11.97516

  18   rms: 0.4202E-02   max: -.6580E-01   C at  100  1
       a =  4.200      CL =  0.8589
      Cm = -0.0788     CD =  0.00847   =>   CDf =  0.00523    CDp =  0.00324

 Side 1  free  transition at x/c =  0.5338  100
 Side 2 forced transition at x/c =  1.0000  141
BRO:  11.97516

  19   rms: 0.4202E-02   max: -.6580E-01   C at  100  1
       a =  4.200      CL =  0.8589
      Cm = -0.0788     CD =  0.00847   =>   CDf =  0.00523    CDp =  0.00324

 Side 1  free  transition at x/c =  0.5338  100
 Side 2 forced transition at x/c =  1.0000  141
BRO:  11.97516

  20   rms: 0.4202E-02   max: -.6580E-01   C at  100  1
       a =  4.200      CL =  0.8589
      Cm = -0.0788     CD =  0.00847   =>   CDf =  0.00523    CDp =  0.00324

 Side 1  free  transition at x/c =  0.5338  100
 Side 2 forced transition at x/c =  1.0000  141
BRO:  11.97516

  21   rms: 0.4202E-02   max: -.6580E-01   C at  100  1
       a =  4.200      CL =  0.8589
      Cm = -0.0788     CD =  0.00847   =>   CDf =  0.00523    CDp =  0.00324

 Side 1  free  transition at x/c =  0.5338  100
 Side 2 forced transition at x/c =  1.0000  141
BRO:  11.97516

  22   rms: 0.4202E-02   max: -.6580E-01   C at  100  1
       a =  4.200      CL =  0.8589
      Cm = -0.0788     CD =  0.00847   =>   CDf =  0.00523    CDp =  0.00324

 Side 1  free  transition at x/c =  0.5338  100
 Side 2 forced transition at x/c =  1.0000  141
BRO:  11.97516

  23   rms: 0.4202E-02   max: -.6580E-01   C at  100  1
       a =  4.200      CL =  0.8589
      Cm = -0.0788     CD =  0.00847   =>   CDf =  0.00523    CDp =  0.00324

 Side 1  free  transition at x/c =  0.5338  100
 Side 2 forced transition at x/c =  1.0000  141
BRO:  11.97516

  24   rms: 0.4202E-02   max: -.6580E-01   C at  100  1
       a =  4.200      CL =  0.8589
      Cm = -0.0788     CD =  0.00847   =>   CDf =  0.00523    CDp =  0.00324

 Side 1  free  transition at x/c =  0.5338  100
 Side 2 forced transition at x/c =  1.0000  141
BRO:  11.97516

  25   rms: 0.4202E-02   max: -.6580E-01   C at  100  1
       a =  4.200      CL =  0.8589
      Cm = -0.0788     CD =  0.00847   =>   CDf =  0.00523    CDp =  0.00324

 Side 1  free  transition at x/c =  0.5338  100
 Side 2 forced transition at x/c =  1.0000  141
BRO:  11.97516

  26   rms: 0.4202E-02   max: -.6580E-01   C at  100  1
       a =  4.200      CL =  0.8589
      Cm = -0.0788     CD =  0.00847   =>   CDf =  0.00523    CDp =  0.00324

 Side 1  free  transition at x/c =  0.5338  100
 Side 2 forced transition at x/c =  1.0000  141
BRO:  11.97516

  27   rms: 0.4202E-02   max: -.6580E-01   C at  100  1
       a =  4.200      CL =  0.8589
      Cm = -0.0788     CD =  0.00847   =>   CDf =  0.00523    CDp =  0.00324

 Side 1  free  transition at x/c =  0.5338  100
 Side 2 forced transition at x/c =  1.0000  141
BRO:  11.97516

  28   rms: 0.4202E-02   max: -.6580E-01   C at  100  1
       a =  4.200      CL =  0.8589
      Cm = -0.0788     CD =  0.00847   =>   CDf =  0.00523    CDp =  0.00324

 Side 1  free  transition at x/c =  0.5338  100
 Side 2 forced transition at x/c =  1.0000  141
BRO:  11.97516

  29   rms: 0.4202E-02   max: -.6580E-01   C at  100  1
       a =  4.200      CL =  0.8589
      Cm = -0.0788     CD =  0.00847   =>   CDf =  0.00523    CDp =  0.00324

 Side 1  free  transition at x/c =  0.5338  100
 Side 2 forced transition at x/c =  1.0000  141
BRO:  11.97516

  30   rms: 0.4202E-02   max: -.6580E-01   C at  100  1
       a =  4.200      CL =  0.8589
      Cm = -0.0788     CD =  0.00847   =>   CDf =  0.00523    CDp =  0.00324

 Side 1  free  transition at x/c =  0.5338  100
 Side 2 forced transition at x/c =  1.0000  141
BRO:  11.97516

  31   rms: 0.4202E-02   max: -.6580E-01   C at  100  1
       a =  4.200      CL =  0.8589
      Cm = -0.0788     CD =  0.00847   =>   CDf =  0.00523    CDp =  0.00324

 Side 1  free  transition at x/c =  0.5338  100
 Side 2 forced transition at x/c =  1.0000  141
BRO:  11.97516

  32   rms: 0.4202E-02   max: -.6580E-01   C at  100  1
       a =  4.200      CL =  0.8589
      Cm = -0.0788     CD =  0.00847   =>   CDf =  0.00523    CDp =  0.00324

 Side 1  free  transition at x/c =  0.5338  100
 Side 2 forced transition at x/c =  1.0000  141
BRO:  11.97516

  33   rms: 0.4202E-02   max: -.6580E-01   C at  100  1
       a =  4.200      CL =  0.8589
      Cm = -0.0788     CD =  0.00847   =>   CDf =  0.00523    CDp =  0.00324

 Side 1  free  transition at x/c =  0.5338  100
 Side 2 forced transition at x/c =  1.0000  141
BRO:  11.97516

  34   rms: 0.4202E-02   max: -.6580E-01   C at  100  1
       a =  4.200      CL =  0.8589
      Cm = -0.0788     CD =  0.00847   =>   CDf =  0.00523    CDp =  0.00324

 Side 1  free  transition at x/c =  0.5338  100
 Side 2 forced transition at x/c =  1.0000  141
BRO:  11.97516

  35   rms: 0.4202E-02   max: -.6580E-01   C at  100  1
       a =  4.200      CL =  0.8589
      Cm = -0.0788     CD =  0.00847   =>   CDf =  0.00523    CDp =  0.00324

 Side 1  free  transition at x/c =  0.5338  100
 Side 2 forced transition at x/c =  1.0000  141
BRO:  11.97516

  36   rms: 0.4202E-02   max: -.6580E-01   C at  100  1
       a =  4.200      CL =  0.8589
      Cm = -0.0788     CD =  0.00847   =>   CDf =  0.00523    CDp =  0.00324

 Side 1  free  transition at x/c =  0.5338  100
 Side 2 forced transition at x/c =  1.0000  141
BRO:  11.97516

  37   rms: 0.4202E-02   max: -.6580E-01   C at  100  1
       a =  4.200      CL =  0.8589
      Cm = -0.0788     CD =  0.00847   =>   CDf =  0.00523    CDp =  0.00324

 Side 1  free  transition at x/c =  0.5338  100
 Side 2 forced transition at x/c =  1.0000  141
BRO:  11.97516

  38   rms: 0.4202E-02   max: -.6580E-01   C at  100  1
       a =  4.200      CL =  0.8589
      Cm = -0.0788     CD =  0.00847   =>   CDf =  0.00523    CDp =  0.00324

 Side 1  free  transition at x/c =  0.5338  100
 Side 2 forced transition at x/c =  1.0000  141
BRO:  11.97516

  39   rms: 0.4202E-02   max: -.6580E-01   C at  100  1
       a =  4.200      CL =  0.8589
      Cm = -0.0788     CD =  0.00847   =>   CDf =  0.00523    CDp =  0.00324

 Side 1  free  transition at x/c =  0.5338  100
 Side 2 forced transition at x/c =  1.0000  141
BRO:  11.97516

  40   rms: 0.4202E-02   max: -.6580E-01   C at  100  1
       a =  4.200      CL =  0.8589
      Cm = -0.0788     CD =  0.00847   =>   CDf =  0.00523    CDp =  0.00324

 Side 1  free  transition at x/c =  0.5338  100
 Side 2 forced transition at x/c =  1.0000  141
BRO:  11.97516

  41   rms: 0.4202E-02   max: -.6580E-01   C at  100  1
       a =  4.200      CL =  0.8589
      Cm = -0.0788     CD =  0.00847   =>   CDf =  0.00523    CDp =  0.00324

 Side 1  free  transition at x/c =  0.5338  100
 Side 2 forced transition at x/c =  1.0000  141
BRO:  11.97516

  42   rms: 0.4202E-02   max: -.6580E-01   C at  100  1
       a =  4.200      CL =  0.8589
      Cm = -0.0788     CD =  0.00847   =>   CDf =  0.00523    CDp =  0.00324

 Side 1  free  transition at x/c =  0.5338  100
 Side 2 forced transition at x/c =  1.0000  141
BRO:  11.97516

  43   rms: 0.4202E-02   max: -.6580E-01   C at  100  1
       a =  4.200      CL =  0.8589
      Cm = -0.0788     CD =  0.00847   =>   CDf =  0.00523    CDp =  0.00324

 Side 1  free  transition at x/c =  0.5338  100
 Side 2 forced transition at x/c =  1.0000  141
BRO:  11.97516

  44   rms: 0.4202E-02   max: -.6580E-01   C at  100  1
       a =  4.200      CL =  0.8589
      Cm = -0.0788     CD =  0.00847   =>   CDf =  0.00523    CDp =  0.00324

 Side 1  free  transition at x/c =  0.5338  100
 Side 2 forced transition at x/c =  1.0000  141
BRO:  11.97516

  45   rms: 0.4202E-02   max: -.6580E-01   C at  100  1
       a =  4.200      CL =  0.8589
      Cm = -0.0788     CD =  0.00847   =>   CDf =  0.00523    CDp =  0.00324

 Side 1  free  transition at x/c =  0.5338  100
 Side 2 forced transition at x/c =  1.0000  141
BRO:  11.97516

  46   rms: 0.4202E-02   max: -.6580E-01   C at  100  1
       a =  4.200      CL =  0.8589
      Cm = -0.0788     CD =  0.00847   =>   CDf =  0.00523    CDp =  0.00324

 Side 1  free  transition at x/c =  0.5338  100
 Side 2 forced transition at x/c =  1.0000  141
BRO:  11.97516

  47   rms: 0.4202E-02   max: -.6580E-01   C at  100  1
       a =  4.200      CL =  0.8589
      Cm = -0.0788     CD =  0.00847   =>   CDf =  0.00523    CDp =  0.00324

 Side 1  free  transition at x/c =  0.5338  100
 Side 2 forced transition at x/c =  1.0000  141
BRO:  11.97516

  48   rms: 0.4202E-02   max: -.6580E-01   C at  100  1
       a =  4.200      CL =  0.8589
      Cm = -0.0788     CD =  0.00847   =>   CDf =  0.00523    CDp =  0.00324

 Side 1  free  transition at x/c =  0.5338  100
 Side 2 forced transition at x/c =  1.0000  141
BRO:  11.97516

  49   rms: 0.4202E-02   max: -.6580E-01   C at  100  1
       a =  4.200      CL =  0.8589
      Cm = -0.0788     CD =  0.00847   =>   CDf =  0.00523    CDp =  0.00324

 Side 1  free  transition at x/c =  0.5338  100
 Side 2 forced transition at x/c =  1.0000  141
BRO:  11.97516

  50   rms: 0.4202E-02   max: -.6580E-01   C at  100  1
       a =  4.200      CL =  0.8589
      Cm = -0.0788     CD =  0.00847   =>   CDf =  0.00523    CDp =  0.00324

 Side 1  free  transition at x/c =  0.5338  100
 Side 2 forced transition at x/c =  1.0000  141
BRO:  11.97516

  51   rms: 0.4202E-02   max: -.6580E-01   C at  100  1
       a =  4.200      CL =  0.8589
      Cm = -0.0788     CD =  0.00847   =>   CDf =  0.00523    CDp =  0.00324

 Side 1  free  transition at x/c =  0.5338  100
 Side 2 forced transition at x/c =  1.0000  141
BRO:  11.97516

  52   rms: 0.4202E-02   max: -.6580E-01   C at  100  1
       a =  4.200      CL =  0.8589
      Cm = -0.0788     CD =  0.00847   =>   CDf =  0.00523    CDp =  0.00324

 Side 1  free  transition at x/c =  0.5338  100
 Side 2 forced transition at x/c =  1.0000  141
BRO:  11.97516

  53   rms: 0.4202E-02   max: -.6580E-01   C at  100  1
       a =  4.200      CL =  0.8589
      Cm = -0.0788     CD =  0.00847   =>   CDf =  0.00523    CDp =  0.00324

 Side 1  free  transition at x/c =  0.5338  100
 Side 2 forced transition at x/c =  1.0000  141
BRO:  11.97516

  54   rms: 0.4202E-02   max: -.6580E-01   C at  100  1
       a =  4.200      CL =  0.8589
      Cm = -0.0788     CD =  0.00847   =>   CDf =  0.00523    CDp =  0.00324

 Side 1  free  transition at x/c =  0.5338  100
 Side 2 forced transition at x/c =  1.0000  141
BRO:  11.97516

  55   rms: 0.4202E-02   max: -.6580E-01   C at  100  1
       a =  4.200      CL =  0.8589
      Cm = -0.0788     CD =  0.00847   =>   CDf =  0.00523    CDp =  0.00324
 VISCAL:  Convergence failed
      9.000    4.7026   0.008472   0.002345   0.002632   0.000287    0.5338     #
 Calculating wake trajectory ...
 Calculating source influence matrix ...

 Solving BL system ...

 Side 1  free  transition at x/c =  0.5338  100
 Side 2 forced transition at x/c =  1.0000  141
BRO:  12.06885

   1   rms: 0.1920E-01   max: -.1599E+00   C at  100  1
       a =  4.300      CL =  0.8700
      Cm = -0.0788     CD =  0.00848   =>   CDf =  0.00523    CDp =  0.00325

 Side 1  free  transition at x/c =  0.5284  100
 Side 2 forced transition at x/c =  1.0000  141
BRO:  11.98088

   2   rms: 0.5531E-02   max: -.6270E-01   C at  100  1
       a =  4.300      CL =  0.8699
      Cm = -0.0788     CD =  0.00850   =>   CDf =  0.00521    CDp =  0.00330

 Side 1  free  transition at x/c =  0.5298  100
 Side 2 forced transition at x/c =  1.0000  141
BRO:  11.98777

   3   rms: 0.1959E-03   max: -.3884E-02   D at  103  1
       a =  4.300      CL =  0.8699
      Cm = -0.0788     CD =  0.00851   =>   CDf =  0.00518    CDp =  0.00334

 Side 1  free  transition at x/c =  0.5297  100
 Side 2 forced transition at x/c =  1.0000  141
BRO:  11.98797

   4   rms: 0.2341E-05   max: -.1164E-04   C at  100  1
[...]
 MRCHDU: Convergence failed at 135  side 1    Res =  0.8937E-01
 MRCHDU: Convergence failed at 136  side 1    Res =  0.8948E-01
 MRCHDU: Convergence failed at 137  side 1    Res =  0.8959E-01
 MRCHDU: Convergence failed at 138  side 1    Res =  0.8969E-01
 MRCHDU: Convergence failed at 139  side 1    Res =  0.8980E-01
 MRCHDU: Convergence failed at 140  side 1    Res =  0.8989E-01
 MRCHDU: Convergence failed at 141  side 1    Res =  0.8998E-01
 MRCHDU: Convergence failed at 142  side 1    Res =  0.9006E-01
 MRCHDU: Convergence failed at 143  side 1    Res =  0.9014E-01
 MRCHDU: Convergence failed at 144  side 1    Res =  0.9022E-01
 MRCHDU: Convergence failed at 145  side 1    Res =  0.9031E-01
 MRCHDU: Convergence failed at 146  side 1    Res =  0.9040E-01
 MRCHDU: Convergence failed at 147  side 1    Res =  0.9051E-01
 MRCHDU: Convergence failed at 148  side 1    Res =  0.9061E-01
 MRCHDU: Convergence failed at 149  side 1    Res =  0.9072E-01
 MRCHDU: Convergence failed at 150  side 1    Res =  0.9083E-01
 MRCHDU: Convergence failed at 151  side 1    Res =  0.9094E-01
 MRCHDU: Convergence failed at 152  side 1    Res =  0.9105E-01
 MRCHDU: Convergence failed at 153  side 1    Res =  0.9115E-01
 MRCHDU: Convergence failed at 154  side 1    Res =  0.9126E-01
 MRCHDU: Convergence failed at 155  side 1    Res =  0.9136E-01
 MRCHDU: Convergence failed at 156  side 1    Res =  0.9145E-01
 MRCHDU: Convergence failed at 157  side 1    Res =  0.9154E-01
 MRCHDU: Convergence failed at 158  side 1    Res =  0.9163E-01
 MRCHDU: Convergence failed at 159  side 1    Res =  0.9175E-01
 MRCHDU: Convergence failed at 160  side 1    Res =  0.9190E-01
 MRCHDU: Convergence failed at 161  side 1    Res =  0.9207E-01
 MRCHDU: Convergence failed at 162  side 1    Res =  0.9222E-01
 MRCHDU: Convergence failed at 163  side 1    Res =  0.9230E-01
 MRCHDU: Convergence failed at 164  side 1    Res =  0.9228E-01
 MRCHDU: Convergence failed at 165  side 1    Res =  0.9212E-01
 MRCHDU: Convergence failed at 166  side 1    Res =  0.9184E-01
 MRCHDU: Convergence failed at 167  side 1    Res =  0.9137E-01
 MRCHDU: Convergence failed at 168  side 1    Res =  0.9019E-01
 MRCHDU: Convergence failed at 169  side 1    Res =  0.8740E-01
 MRCHDU: Convergence failed at 170  side 1    Res =  0.8244E-01
 MRCHDU: Convergence failed at 171  side 1    Res =  0.7515E-01
 MRCHDU: Convergence failed at 172  side 1    Res =  0.6639E-01
 MRCHDU: Convergence failed at 173  side 1    Res =  0.5660E-01
 MRCHDU: Convergence failed at 174  side 1    Res =  0.4106E-01
 Side 1  free  transition at x/c =  0.0108   35
 Side 2 forced transition at x/c =  1.0000  129
BRO:   5.72141

  53   rms: 0.8105E+02   max: 0.3920E+03   C at  174  1   RLX: 0.004
       a = 14.100      CL =  5.3487
      Cm = -1.1895     CD = -0.13550   =>   CDf =  0.00323    CDp = -0.13873

 MRCHDU: Convergence failed at  48  side 1    Res =  0.1125E+00
 MRCHDU: Convergence failed at  49  side 1    Res =  0.1122E+00
 MRCHDU: Convergence failed at  50  side 1    Res =  0.1102E+00
 MRCHDU: Convergence failed at  51  side 1    Res =  0.1069E+00
 MRCHDU: Convergence failed at  52  side 1    Res =  0.1031E+00
 MRCHDU: Convergence failed at  53  side 1    Res =  0.9964E-01
 MRCHDU: Convergence failed at  54  side 1    Res =  0.1852E+00
 MRCHDU: Convergence failed at  55  side 1    Res =  0.1825E+00
 MRCHDU: Convergence failed at  56  side 1    Res =  0.1798E+00
 MRCHDU: Convergence failed at  57  side 1    Res =  0.1772E+00
 MRCHDU: Convergence failed at  58  side 1    Res =  0.1745E+00
 MRCHDU: Convergence failed at  59  side 1    Res =  0.1718E+00
 MRCHDU: Convergence failed at  60  side 1    Res =  0.1692E+00
 MRCHDU: Convergence failed at  61  side 1    Res =  0.1666E+00
 MRCHDU: Convergence failed at  62  side 1    Res =  0.1641E+00
 MRCHDU: Convergence failed at  63  side 1    Res =  0.1618E+00
 MRCHDU: Convergence failed at  64  side 1    Res =  0.1596E+00
 MRCHDU: Convergence failed at  65  side 1    Res =  0.1574E+00
 MRCHDU: Convergence failed at  66  side 1    Res =  0.1553E+00
 MRCHDU: Convergence failed at  67  side 1    Res =  0.1532E+00
 MRCHDU: Convergence failed at  68  side 1    Res =  0.1511E+00
 MRCHDU: Convergence failed at  69  side 1    Res =  0.1491E+00
 MRCHDU: Convergence failed at  70  side 1    Res =  0.1472E+00
 MRCHDU: Convergence failed at  71  side 1    Res =  0.1453E+00
 MRCHDU: Convergence failed at  72  side 1    Res =  0.1435E+00
 MRCHDU: Convergence failed at  73  side 1    Res =  0.1418E+00
 MRCHDU: Convergence failed at  74  side 1    Res =  0.1402E+00
 MRCHDU: Convergence failed at  75  side 1    Res =  0.1385E+00
 MRCHDU: Convergence failed at  76  side 1    Res =  0.1369E+00
 MRCHDU: Convergence failed at  77  side 1    Res =  0.1353E+00
 MRCHDU: Convergence failed at  78  side 1    Res =  0.1337E+00
 MRCHDU: Convergence failed at  79  side 1    Res =  0.1321E+00
 MRCHDU: Convergence failed at  80  side 1    Res =  0.1305E+00
 MRCHDU: Convergence failed at  81  side 1    Res =  0.1289E+00
 MRCHDU: Convergence failed at  82  side 1    Res =  0.1275E+00
 MRCHDU: Convergence failed at  83  side 1    Res =  0.1261E+00
 MRCHDU: Convergence failed at  84  side 1    Res =  0.1249E+00
 MRCHDU: Convergence failed at  85  side 1    Res =  0.1237E+00
 MRCHDU: Convergence failed at  86  side 1    Res =  0.1226E+00
 MRCHDU: Convergence failed at  87  side 1    Res =  0.1216E+00
 MRCHDU: Convergence failed at  88  side 1    Res =  0.1206E+00
 MRCHDU: Convergence failed at  89  side 1    Res =  0.1196E+00
 MRCHDU: Convergence failed at  90  side 1    Res =  0.1186E+00
 MRCHDU: Convergence failed at  91  side 1    Res =  0.1177E+00
 MRCHDU: Convergence failed at  92  side 1    Res =  0.1167E+00
 MRCHDU: Convergence failed at  93  side 1    Res =  0.1158E+00
 MRCHDU: Convergence failed at  94  side 1    Res =  0.1149E+00
 MRCHDU: Convergence failed at  95  side 1    Res =  0.1141E+00
 MRCHDU: Convergence failed at  96  side 1    Res =  0.1132E+00
 MRCHDU: Convergence failed at  97  side 1    Res =  0.1124E+00
 MRCHDU: Convergence failed at  98  side 1    Res =  0.8942E-01
 MRCHDU: Convergence failed at  99  side 1    Res =  0.8165E-01
 MRCHDU: Convergence failed at 100  side 1    Res =  0.8199E-01
 MRCHDU: Convergence failed at 101  side 1    Res =  0.8165E-01
 MRCHDU: Convergence failed at 102  side 1    Res =  0.8131E-01
 MRCHDU: Convergence failed at 103  side 1    Res =  0.8134E-01
 MRCHDU: Convergence failed at 104  side 1    Res =  0.8125E-01
 MRCHDU: Convergence failed at 105  side 1    Res =  0.8159E-01
 MRCHDU: Convergence failed at 106  side 1    Res =  0.8206E-01
 MRCHDU: Convergence failed at 107  side 1    Res =  0.8252E-01
 MRCHDU: Convergence failed at 108  side 1    Res =  0.8297E-01
 MRCHDU: Convergence failed at 109  side 1    Res =  0.8340E-01
 MRCHDU: Convergence failed at 110  side 1    Res =  0.8383E-01
 MRCHDU: Convergence failed at 111  side 1    Res =  0.8424E-01
 MRCHDU: Convergence failed at 112  side 1    Res =  0.8464E-01
 MRCHDU: Convergence failed at 113  side 1    Res =  0.8502E-01
 MRCHDU: Convergence failed at 114  side 1    Res =  0.8538E-01
 MRCHDU: Convergence failed at 115  side 1    Res =  0.8573E-01
 MRCHDU: Convergence failed at 116  side 1    Res =  0.8606E-01
 MRCHDU: Convergence failed at 117  side 1    Res =  0.8637E-01
 MRCHDU: Convergence failed at 118  side 1    Res =  0.8667E-01
 MRCHDU: Convergence failed at 119  side 1    Res =  0.8695E-01
 MRCHDU: Convergence failed at 120  side 1    Res =  0.8723E-01
 MRCHDU: Convergence failed at 121  side 1    Res =  0.8750E-01
 MRCHDU: Convergence failed at 122  side 1    Res =  0.8776E-01
 MRCHDU: Convergence failed at 123  side 1    Res =  0.8801E-01
 MRCHDU: Convergence failed at 124  side 1    Res =  0.8823E-01
 MRCHDU: Convergence failed at 125  side 1    Res =  0.8844E-01
 MRCHDU: Convergence failed at 126  side 1    Res =  0.8862E-01
 MRCHDU: Convergence failed at 127  side 1    Res =  0.8877E-01
 MRCHDU: Convergence failed at 128  side 1    Res =  0.8889E-01
 MRCHDU: Convergence failed at 129  side 1    Res =  0.8900E-01
 MRCHDU: Convergence failed at 130  side 1    Res =  0.8908E-01
 MRCHDU: Convergence failed at 131  side 1    Res =  0.8916E-01
 MRCHDU: Convergence failed at 132  side 1    Res =  0.8924E-01
 MRCHDU: Convergence failed at 133  side 1    Res =  0.8933E-01
 MRCHDU: Convergence failed at 134  side 1    Res =  0.8942E-01
 MRCHDU: Convergence failed at 135  side 1    Res =  0.8953E-01
 MRCHDU: Convergence failed at 136  side 1    Res =  0.8964E-01
 MRCHDU: Convergence failed at 137  side 1    Res =  0.8975E-01
 MRCHDU: Convergence failed at 138  side 1    Res =  0.8987E-01
 MRCHDU: Convergence failed at 139  side 1    Res =  0.8997E-01
 MRCHDU: Convergence failed at 140  side 1    Res =  0.9006E-01
 MRCHDU: Convergence failed at 141  side 1    Res =  0.9015E-01
 MRCHDU: Convergence failed at 142  side 1    Res =  0.9024E-01
 MRCHDU: Convergence failed at 143  side 1    Res =  0.9032E-01
 MRCHDU: Convergence failed at 144  side 1    Res =  0.9041E-01
 MRCHDU: Convergence failed at 145  side 1    Res =  0.9050E-01
 MRCHDU: Convergence failed at 146  side 1    Res =  0.9059E-01
 MRCHDU: Convergence failed at 147  side 1    Res =  0.9070E-01
 MRCHDU: Convergence failed at 148  side 1    Res =  0.9080E-01
 MRCHDU: Convergence failed at 149  side 1    Res =  0.9091E-01
 MRCHDU: Convergence failed at 150  side 1    Res =  0.9103E-01
 MRCHDU: Convergence failed at 151  side 1    Res =  0.9114E-01
 MRCHDU: Convergence failed at 152  side 1    Res =  0.9125E-01
 MRCHDU: Convergence failed at 153  side 1    Res =  0.9135E-01
 MRCHDU: Convergence failed at 154  side 1    Res =  0.9147E-01
 MRCHDU: Convergence failed at 155  side 1    Res =  0.9157E-01
 MRCHDU: Convergence failed at 156  side 1    Res =  0.9167E-01
 MRCHDU: Convergence failed at 157  side 1    Res =  0.9176E-01
 MRCHDU: Convergence failed at 158  side 1    Res =  0.9185E-01
 MRCHDU: Convergence failed at 159  side 1    Res =  0.9197E-01
 MRCHDU: Convergence failed at 160  side 1    Res =  0.9213E-01
 MRCHDU: Convergence failed at 161  side 1    Res =  0.9231E-01
 MRCHDU: Convergence failed at 162  side 1    Res =  0.9246E-01
 MRCHDU: Convergence failed at 163  side 1    Res =  0.9256E-01
 MRCHDU: Convergence failed at 164  side 1    Res =  0.9255E-01
 MRCHDU: Convergence failed at 165  side 1    Res =  0.9239E-01
 MRCHDU: Convergence failed at 166  side 1    Res =  0.9212E-01
 MRCHDU: Convergence failed at 167  side 1    Res =  0.9165E-01
 MRCHDU: Convergence failed at 168  side 1    Res =  0.9047E-01
 MRCHDU: Convergence failed at 169  side 1    Res =  0.8767E-01
 MRCHDU: Convergence failed at 170  side 1    Res =  0.8270E-01
 MRCHDU: Convergence failed at 171  side 1    Res =  0.7539E-01
 MRCHDU: Convergence failed at 172  side 1    Res =  0.6660E-01
 MRCHDU: Convergence failed at 173  side 1    Res =  0.5678E-01
 MRCHDU: Convergence failed at 174  side 1    Res =  0.4119E-01
 Side 1  free  transition at x/c =  0.0108   35
 Side 2 forced transition at x/c =  1.0000  129
BRO:   5.69842

  54   rms: 0.8133E+02   max: 0.3925E+03   C at  174  1   RLX: 0.004
       a = 14.100      CL =  5.3304
      Cm = -1.1850     CD = -0.13341   =>   CDf =  0.00323    CDp = -0.13663

 MRCHDU: Convergence failed at  48  side 1    Res =  0.1080E+00
 MRCHDU: Convergence failed at  49  side 1    Res =  0.1077E+00
 MRCHDU: Convergence failed at  50  side 1    Res =  0.1057E+00
 MRCHDU: Convergence failed at  51  side 1    Res =  0.1024E+00
 MRCHDU: Convergence failed at  52  side 1    Res =  0.9863E-01
 MRCHDU: Convergence failed at  53  side 1    Res =  0.1878E+00
 MRCHDU: Convergence failed at  54  side 1    Res =  0.1847E+00
 MRCHDU: Convergence failed at  55  side 1    Res =  0.1820E+00
 MRCHDU: Convergence failed at  56  side 1    Res =  0.1793E+00
 MRCHDU: Convergence failed at  57  side 1    Res =  0.1767E+00
 MRCHDU: Convergence failed at  58  side 1    Res =  0.1740E+00
 MRCHDU: Convergence failed at  59  side 1    Res =  0.1713E+00
 MRCHDU: Convergence failed at  60  side 1    Res =  0.1687E+00
 MRCHDU: Convergence failed at  61  side 1    Res =  0.1661E+00
 MRCHDU: Convergence failed at  62  side 1    Res =  0.1637E+00
 MRCHDU: Convergence failed at  63  side 1    Res =  0.1613E+00
 MRCHDU: Convergence failed at  64  side 1    Res =  0.1591E+00
 MRCHDU: Convergence failed at  65  side 1    Res =  0.1570E+00
 MRCHDU: Convergence failed at  66  side 1    Res =  0.1548E+00
 MRCHDU: Convergence failed at  67  side 1    Res =  0.1528E+00
 MRCHDU: Convergence failed at  68  side 1    Res =  0.1507E+00
 MRCHDU: Convergence failed at  69  side 1    Res =  0.1487E+00
 MRCHDU: Convergence failed at  70  side 1    Res =  0.1468E+00
 MRCHDU: Convergence failed at  71  side 1    Res =  0.1449E+00
 MRCHDU: Convergence failed at  72  side 1    Res =  0.1431E+00
 MRCHDU: Convergence failed at  73  side 1    Res =  0.1414E+00
 MRCHDU: Convergence failed at  74  side 1    Res =  0.1398E+00
 MRCHDU: Convergence failed at  75  side 1    Res =  0.1381E+00
 MRCHDU: Convergence failed at  76  side 1    Res =  0.1365E+00
 MRCHDU: Convergence failed at  77  side 1    Res =  0.1349E+00
 MRCHDU: Convergence failed at  78  side 1    Res =  0.1333E+00
 MRCHDU: Convergence failed at  79  side 1    Res =  0.1317E+00
 MRCHDU: Convergence failed at  80  side 1    Res =  0.1301E+00
 MRCHDU: Convergence failed at  81  side 1    Res =  0.1285E+00
 MRCHDU: Convergence failed at  82  side 1    Res =  0.1271E+00
 MRCHDU: Convergence failed at  83  side 1    Res =  0.1257E+00
 MRCHDU: Convergence failed at  84  side 1    Res =  0.1245E+00
 MRCHDU: Convergence failed at  85  side 1    Res =  0.1233E+00
 MRCHDU: Convergence failed at  86  side 1    Res =  0.1223E+00
 MRCHDU: Convergence failed at  87  side 1    Res =  0.1212E+00
 MRCHDU: Convergence failed at  88  side 1    Res =  0.1202E+00
 MRCHDU: Convergence failed at  89  side 1    Res =  0.1192E+00
 MRCHDU: Convergence failed at  90  side 1    Res =  0.1183E+00
 MRCHDU: Convergence failed at  91  side 1    Res =  0.1173E+00
 MRCHDU: Convergence failed at  92  side 1    Res =  0.1164E+00
 MRCHDU: Convergence failed at  93  side 1    Res =  0.1155E+00
 MRCHDU: Convergence failed at  94  side 1    Res =  0.1146E+00
 MRCHDU: Convergence failed at  95  side 1    Res =  0.1137E+00
 MRCHDU: Convergence failed at  96  side 1    Res =  0.1129E+00
 MRCHDU: Convergence failed at  97  side 1    Res =  0.1121E+00
 MRCHDU: Convergence failed at  98  side 1    Res =  0.8926E-01
 MRCHDU: Convergence failed at  99  side 1    Res =  0.8159E-01
 MRCHDU: Convergence failed at 100  side 1    Res =  0.8193E-01
 MRCHDU: Convergence failed at 101  side 1    Res =  0.8162E-01
 MRCHDU: Convergence failed at 102  side 1    Res =  0.8129E-01
 MRCHDU: Convergence failed at 103  side 1    Res =  0.8133E-01
 MRCHDU: Convergence failed at 104  side 1    Res =  0.8126E-01
 MRCHDU: Convergence failed at 105  side 1    Res =  0.8161E-01
 MRCHDU: Convergence failed at 106  side 1    Res =  0.8208E-01
 MRCHDU: Convergence failed at 107  side 1    Res =  0.8255E-01
 MRCHDU: Convergence failed at 108  side 1    Res =  0.8301E-01
 MRCHDU: Convergence failed at 109  side 1    Res =  0.8345E-01
 MRCHDU: Convergence failed at 110  side 1    Res =  0.8388E-01
 MRCHDU: Convergence failed at 111  side 1    Res =  0.8430E-01
 MRCHDU: Convergence failed at 112  side 1    Res =  0.8470E-01
 MRCHDU: Convergence failed at 113  side 1    Res =  0.8509E-01
 MRCHDU: Convergence failed at 114  side 1    Res =  0.8546E-01
 MRCHDU: Convergence failed at 115  side 1    Res =  0.8581E-01
 MRCHDU: Convergence failed at 116  side 1    Res =  0.8614E-01
 MRCHDU: Convergence failed at 117  side 1    Res =  0.8645E-01
 MRCHDU: Convergence failed at 118  side 1    Res =  0.8675E-01
 MRCHDU: Convergence failed at 119  side 1    Res =  0.8705E-01
 MRCHDU: Convergence failed at 120  side 1    Res =  0.8733E-01
 MRCHDU: Convergence failed at 121  side 1    Res =  0.8760E-01
 MRCHDU: Convergence failed at 122  side 1    Res =  0.8786E-01
 MRCHDU: Convergence failed at 123  side 1    Res =  0.8811E-01
 MRCHDU: Convergence failed at 124  side 1    Res =  0.8834E-01
 MRCHDU: Convergence failed at 125  side 1    Res =  0.8855E-01
 MRCHDU: Convergence failed at 126  side 1    Res =  0.8873E-01
 MRCHDU: Convergence failed at 127  side 1    Res =  0.8889E-01
 MRCHDU: Convergence failed at 128  side 1    Res =  0.8901E-01
 MRCHDU: Convergence failed at 129  side 1    Res =  0.8911E-01
 MRCHDU: Convergence failed at 130  side 1    Res =  0.8920E-01
 MRCHDU: Convergence failed at 131  side 1    Res =  0.8928E-01
 MRCHDU: Convergence failed at 132  side 1    Res =  0.8937E-01
 MRCHDU: Convergence failed at 133  side 1    Res =  0.8945E-01
 MRCHDU: Convergence failed at 134  side 1    Res =  0.8955E-01
 MRCHDU: Convergence failed at 135  side 1    Res =  0.8966E-01
 MRCHDU: Convergence failed at 136  side 1    Res =  0.8978E-01
 MRCHDU: Convergence failed at 137  side 1    Res =  0.8989E-01
 MRCHDU: Convergence failed at 138  side 1    Res =  0.9000E-01
 MRCHDU: Convergence failed at 139  side 1    Res =  0.9011E-01
 MRCHDU: Convergence failed at 140  side 1    Res =  0.9021E-01
 MRCHDU: Convergence failed at 141  side 1    Res =  0.9030E-01
 MRCHDU: Convergence failed at 142  side 1    Res =  0.9038E-01
 MRCHDU: Convergence failed at 143  side 1    Res =  0.9047E-01
 MRCHDU: Convergence failed at 144  side 1    Res =  0.9056E-01
 MRCHDU: Convergence failed at 145  side 1    Res =  0.9065E-01
 MRCHDU: Convergence failed at 146  side 1    Res =  0.9075E-01
 MRCHDU: Convergence failed at 147  side 1    Res =  0.9086E-01
 MRCHDU: Convergence failed at 148  side 1    Res =  0.9097E-01
 MRCHDU: Convergence failed at 149  side 1    Res =  0.9108E-01
 MRCHDU: Convergence failed at 150  side 1    Res =  0.9120E-01
 MRCHDU: Convergence failed at 151  side 1    Res =  0.9131E-01
 MRCHDU: Convergence failed at 152  side 1    Res =  0.9142E-01
 MRCHDU: Convergence failed at 153  side 1    Res =  0.9153E-01
 MRCHDU: Convergence failed at 154  side 1    Res =  0.9165E-01
 MRCHDU: Convergence failed at 155  side 1    Res =  0.9175E-01
 MRCHDU: Convergence failed at 156  side 1    Res =  0.9185E-01
 MRCHDU: Convergence failed at 157  side 1    Res =  0.9195E-01
 MRCHDU: Convergence failed at 158  side 1    Res =  0.9204E-01
 MRCHDU: Convergence failed at 159  side 1    Res =  0.9217E-01
 MRCHDU: Convergence failed at 160  side 1    Res =  0.9233E-01
 MRCHDU: Convergence failed at 161  side 1    Res =  0.9251E-01
 MRCHDU: Convergence failed at 162  side 1    Res =  0.9267E-01
 MRCHDU: Convergence failed at 163  side 1    Res =  0.9279E-01
 MRCHDU: Convergence failed at 164  side 1    Res =  0.9279E-01
 MRCHDU: Convergence failed at 165  side 1    Res =  0.9264E-01
 MRCHDU: Convergence failed at 166  side 1    Res =  0.9237E-01
 MRCHDU: Convergence failed at 167  side 1    Res =  0.9190E-01
 MRCHDU: Convergence failed at 168  side 1    Res =  0.9072E-01
 MRCHDU: Convergence failed at 169  side 1    Res =  0.8792E-01
 MRCHDU: Convergence failed at 170  side 1    Res =  0.8294E-01
 MRCHDU: Convergence failed at 171  side 1    Res =  0.7561E-01
 MRCHDU: Convergence failed at 172  side 1    Res =  0.6680E-01
 MRCHDU: Convergence failed at 173  side 1    Res =  0.5694E-01
 MRCHDU: Convergence failed at 174  side 1    Res =  0.4131E-01
 Side 1  free  transition at x/c =  0.0108   35
 Side 2 forced transition at x/c =  1.0000  129
BRO:   5.67195

  55   rms: 0.8187E+02   max: 0.3943E+03   C at  174  1   RLX: 0.004
       a = 14.100      CL =  5.3123
      Cm = -1.1806     CD = -0.13121   =>   CDf =  0.00323    CDp = -0.13444
 VISCAL:  Convergence failed
      9.000 2867.6293  -0.131209   0.000736   0.000000  -0.000736    0.0108     #

 Sequence halted since previous  4 points did not converge
 Last-converged  alpha =  13.700    CL =   1.39212

.OPERva   c>  
 XFOIL   c>  
 XFOIL   c>  
 XFOIL   c>  
 XFOIL   c>  