  
       XFOIL         Version 6.99
  
 Calculated polar for: pyXFOIL Airfoil                                 
  
 1 1 Reynolds number fixed          Mach number fixed         
  
 xtrf =   1.000 (top)        1.000 (bottom)  
 Mach =   0.000     Re =     0.500 e 6     Ncrit =   9.000  9.000
  
   alpha    CL        CD       CDp       CM     Top_Xtr  Bot_Xtr  Top_Itr  Bot_Itr
  ------ -------- --------- --------- -------- -------- -------- -------- --------
   0.000   0.3956   0.00685   0.00105  -0.0799   0.6443   1.0000  48.5734 301.0000
   0.100   0.4067   0.00688   0.00104  -0.0798   0.6422   1.0000  48.8472 301.0000
   0.200   0.4177   0.00692   0.00104  -0.0798   0.6400   1.0000  49.1245 301.0000
   0.300   0.4288   0.00694   0.00105  -0.0798   0.6375   1.0000  49.4522 301.0000
   0.400   0.4399   0.00697   0.00105  -0.0798   0.6353   1.0000  49.7402 301.0000
   0.500   0.4509   0.00702   0.00105  -0.0797   0.6334   1.0000  49.9832 301.0000
   0.600   0.4621   0.00704   0.00106  -0.0797   0.6309   1.0000  50.3134 301.0000
   0.700   0.4732   0.00707   0.00106  -0.0797   0.6285   1.0000  50.6168 301.0000
   0.800   0.4842   0.00711   0.00106  -0.0797   0.6265   1.0000  50.8770 301.0000
   0.900   0.4953   0.00714   0.00107  -0.0796   0.6244   1.0000  51.1575 301.0000
   1.000   0.5064   0.00717   0.00108  -0.0796   0.6219   1.0000  51.4785 301.0000
   1.100   0.5175   0.00721   0.00109  -0.0796   0.6197   1.0000  51.7582 301.0000
   1.200   0.5286   0.00726   0.00109  -0.0796   0.6179   1.0000  51.9941 301.0000
   1.300   0.5397   0.00728   0.00111  -0.0796   0.6153   1.0000  52.3290 301.0000
   1.400   0.5508   0.00732   0.00112  -0.0796   0.6130   1.0000  52.6304 301.0000
   1.500   0.5619   0.00736   0.00112  -0.0796   0.6110   1.0000  52.8883 301.0000
   1.600   0.5730   0.00740   0.00113  -0.0795   0.6088   1.0000  53.1814 301.0000
   1.700   0.5841   0.00743   0.00115  -0.0795   0.6063   1.0000  53.5046 301.0000
   1.800   0.5952   0.00747   0.00115  -0.0795   0.6041   1.0000  53.7914 301.0000
   1.900   0.6063   0.00752   0.00116  -0.0795   0.6021   1.0000  54.0571 301.0000
   2.000   0.6174   0.00755   0.00118  -0.0795   0.5993   1.0000  54.4179 301.0000
   2.100   0.6284   0.00759   0.00118  -0.0795   0.5968   1.0000  54.7387 301.0000
   2.200   0.6395   0.00764   0.00119  -0.0794   0.5947   1.0000  55.0152 301.0000
   2.300   0.6505   0.00766   0.00120  -0.0794   0.5917   1.0000  55.4063 301.0000
   2.400   0.6616   0.00770   0.00121  -0.0794   0.5891   1.0000  55.7474 301.0000
   2.500   0.6726   0.00775   0.00121  -0.0794   0.5868   1.0000  56.0506 301.0000
   2.600   0.6837   0.00778   0.00123  -0.0794   0.5837   1.0000  56.4579 301.0000
   2.700   0.6947   0.00782   0.00123  -0.0793   0.5810   1.0000  56.8103 301.0000
   2.800   0.7057   0.00787   0.00124  -0.0793   0.5783   1.0000  57.1704 301.0000
   2.900   0.7167   0.00790   0.00125  -0.0793   0.5751   1.0000  57.5874 301.0000
   3.000   0.7276   0.00795   0.00125  -0.0792   0.5724   1.0000  57.9330 301.0000
   3.100   0.7387   0.00798   0.00126  -0.0792   0.5692   1.0000  58.3568 301.0000
   3.200   0.7496   0.00802   0.00127  -0.0792   0.5662   1.0000  58.7511 301.0000
   3.300   0.7606   0.00807   0.00127  -0.0791   0.5635   1.0000  59.1064 301.0000
   3.400   0.7716   0.00810   0.00129  -0.0791   0.5602   1.0000  59.5440 301.0000
   3.500   0.7825   0.00815   0.00129  -0.0791   0.5574   1.0000  59.9105 301.0000
   3.600   0.7935   0.00819   0.00130  -0.0791   0.5540   1.0000  60.3489 301.0000
   3.700   0.8045   0.00824   0.00131  -0.0790   0.5508   1.0000  60.7716 301.0000
   3.800   0.8154   0.00828   0.00131  -0.0790   0.5477   1.0000  61.1814 301.0000
   3.900   0.8263   0.00832   0.00132  -0.0789   0.5441   1.0000  61.6540 301.0000
   4.000   0.8372   0.00838   0.00133  -0.0789   0.5410   1.0000  62.0588 301.0000
   4.100   0.8481   0.00842   0.00134  -0.0789   0.5371   1.0000  62.5785 301.0000
   4.300   0.8699   0.00851   0.00135  -0.0788   0.5297   1.0000  63.5541 301.0000
   4.400   0.8806   0.00857   0.00135  -0.0787   0.5263   1.0000  64.0062 301.0000
   4.500   0.8915   0.00861   0.00137  -0.0787   0.5219   1.0000  64.5925 301.0000
   4.600   0.9023   0.00867   0.00137  -0.0786   0.5177   1.0000  65.1401 301.0000
   4.700   0.9131   0.00872   0.00137  -0.0785   0.5127   1.0000  65.8028 301.0000
   4.800   0.9238   0.00877   0.00137  -0.0785   0.5072   1.0000  66.5328 301.0000
   4.900   0.9344   0.00883   0.00137  -0.0784   0.5014   1.0000  67.3090 301.0000
   5.000   0.9450   0.00889   0.00137  -0.0783   0.4949   1.0000  68.1662 301.0000
   5.100   0.9555   0.00896   0.00136  -0.0782   0.4875   1.0000  69.1532 301.0000
   5.200   0.9660   0.00903   0.00136  -0.0781   0.4790   1.0000  70.2860 301.0000
   5.300   0.9764   0.00911   0.00136  -0.0780   0.4692   1.0000  71.5823 301.0000
   5.500   0.9968   0.00932   0.00136  -0.0777   0.4471   1.0000  74.5273 301.0000
   5.600   1.0069   0.00944   0.00138  -0.0776   0.4369   1.0000  75.8985 301.0000
   5.700   1.0171   0.00955   0.00140  -0.0774   0.4262   1.0000  77.3262 301.0000
   5.800   1.0270   0.00970   0.00142  -0.0773   0.4129   1.0000  79.0986 301.0000
   5.900   1.0367   0.00988   0.00145  -0.0771   0.3962   1.0000  81.3351 301.0000
   6.000   1.0460   0.01009   0.00150  -0.0768   0.3771   1.0000  83.9056 301.0000
   6.100   1.0549   0.01035   0.00157  -0.0765   0.3549   1.0000  86.8849 301.0000
   6.200   1.0633   0.01067   0.00166  -0.0762   0.3276   1.0000  90.5666 301.0000
   6.300   1.0708   0.01110   0.00181  -0.0758   0.2941   1.0000  95.0995 301.0000
   6.400   1.0781   0.01157   0.00199  -0.0753   0.2609   1.0000  99.5882 301.0000
   6.500   1.0856   0.01201   0.00217  -0.0749   0.2323   1.0000 103.4688 301.0000
   6.600   1.0930   0.01246   0.00236  -0.0745   0.2045   1.0000 107.2505 301.0000
   6.700   1.1001   0.01293   0.00257  -0.0741   0.1764   1.0000 111.1129 301.0000
   6.800   1.1071   0.01341   0.00277  -0.0736   0.1488   1.0000 114.9626 301.0000
   6.900   1.1141   0.01389   0.00298  -0.0732   0.1230   1.0000 118.6307 301.0000
   7.000   1.1209   0.01438   0.00318  -0.0727   0.0988   1.0000 122.1740 301.0000
   7.100   1.1273   0.01491   0.00341  -0.0721   0.0740   1.0000 125.9444 301.0000
   7.200   1.1328   0.01552   0.00369  -0.0714   0.0476   1.0000 130.3948 301.0000
   7.300   1.1384   0.01613   0.00397  -0.0707   0.0283   1.0000 134.2267 301.0000
   7.500   1.1538   0.01686   0.00429  -0.0698   0.0194   1.0000 136.7420 301.0000
   7.600   1.1620   0.01716   0.00442  -0.0694   0.0182   1.0000 137.1800 301.0000
   7.700   1.1705   0.01743   0.00454  -0.0691   0.0173   1.0000 137.5133 301.0000
   7.800   1.1786   0.01773   0.00468  -0.0686   0.0166   1.0000 137.7855 301.0000
   7.900   1.1861   0.01808   0.00485  -0.0682   0.0160   1.0000 138.0139 301.0000
   8.000   1.1943   0.01836   0.00498  -0.0678   0.0155   1.0000 138.1988 301.0000
   8.100   1.2023   0.01865   0.00513  -0.0674   0.0151   1.0000 138.3845 301.0000
   8.200   1.2100   0.01896   0.00528  -0.0669   0.0147   1.0000 138.5546 301.0000
   8.300   1.2173   0.01930   0.00546  -0.0664   0.0144   1.0000 138.6995 301.0000
   8.400   1.2242   0.01967   0.00565  -0.0659   0.0141   1.0000 138.8162 301.0000
   8.500   1.2304   0.02011   0.00588  -0.0652   0.0139   1.0000 138.9176 301.0000
   8.600   1.2356   0.02060   0.00614  -0.0645   0.0137   1.0000 139.0045 301.0000
   8.700   1.2423   0.02096   0.00633  -0.0639   0.0135   1.0000 139.0659 301.0000
   8.800   1.2486   0.02134   0.00653  -0.0633   0.0134   1.0000 139.1293 301.0000
   8.900   1.2545   0.02174   0.00674  -0.0626   0.0132   1.0000 139.1920 301.0000
   9.000   1.2601   0.02216   0.00697  -0.0619   0.0131   1.0000 139.2526 301.0000
   9.100   1.2653   0.02259   0.00720  -0.0611   0.0130   1.0000 139.3112 301.0000
   9.200   1.2702   0.02304   0.00744  -0.0603   0.0129   1.0000 139.3717 301.0000
   9.300   1.2745   0.02349   0.00769  -0.0594   0.0127   1.0000 139.4333 301.0000
   9.400   1.2780   0.02394   0.00793  -0.0584   0.0126   1.0000 139.4933 301.0000
   9.500   1.2810   0.02440   0.00818  -0.0573   0.0125   1.0000 139.5531 301.0000
   9.600   1.2838   0.02489   0.00844  -0.0562   0.0123   1.0000 139.6122 301.0000
   9.800   1.2886   0.02595   0.00903  -0.0541   0.0121   1.0000 139.7244 301.0000
   9.900   1.2905   0.02653   0.00936  -0.0531   0.0120   1.0000 139.7753 301.0000
  10.000   1.2922   0.02716   0.00971  -0.0521   0.0119   1.0000 139.8213 301.0000
  10.100   1.2936   0.02784   0.01009  -0.0511   0.0118   1.0000 139.8613 301.0000
  10.200   1.2949   0.02855   0.01049  -0.0501   0.0117   1.0000 139.8941 301.0000
  10.300   1.2961   0.02930   0.01092  -0.0492   0.0117   1.0000 139.9228 301.0000
  10.400   1.2974   0.03007   0.01136  -0.0483   0.0116   1.0000 139.9495 301.0000
  10.500   1.2989   0.03087   0.01182  -0.0474   0.0116   1.0000 139.9743 301.0000
  10.600   1.3007   0.03167   0.01227  -0.0466   0.0115   1.0000 139.9974 301.0000
  10.700   1.3041   0.03233   0.01266  -0.0460   0.0115   1.0000 140.0142 301.0000
  10.800   1.3076   0.03298   0.01305  -0.0453   0.0114   1.0000 140.0303 301.0000
  10.900   1.3112   0.03363   0.01345  -0.0447   0.0114   1.0000 140.0462 301.0000
  11.000   1.3149   0.03430   0.01385  -0.0441   0.0114   1.0000 140.0616 301.0000
  11.100   1.3187   0.03497   0.01426  -0.0435   0.0114   1.0000 140.0763 301.0000
  11.200   1.3225   0.03565   0.01467  -0.0430   0.0113   1.0000 140.0900 301.0000
  11.300   1.3265   0.03634   0.01510  -0.0424   0.0113   1.0000 140.1029 301.0000
  11.400   1.3305   0.03703   0.01553  -0.0418   0.0113   1.0000 140.1184 301.0000
  11.500   1.3345   0.03773   0.01597  -0.0413   0.0112   1.0000 140.1368 301.0000
  11.600   1.3384   0.03845   0.01644  -0.0408   0.0112   1.0000 140.1580 301.0000
  11.700   1.3422   0.03918   0.01692  -0.0402   0.0111   1.0000 140.1815 301.0000
  11.800   1.3459   0.03993   0.01742  -0.0397   0.0111   1.0000 140.2068 301.0000
  11.900   1.3494   0.04071   0.01794  -0.0392   0.0110   1.0000 140.2325 301.0000
  12.000   1.3528   0.04151   0.01848  -0.0387   0.0110   1.0000 140.2569 301.0000
  12.100   1.3562   0.04233   0.01904  -0.0382   0.0110   1.0000 140.2770 301.0000
  12.200   1.3595   0.04319   0.01962  -0.0377   0.0109   1.0000 140.2888 301.0000
  12.300   1.3630   0.04407   0.02022  -0.0372   0.0109   1.0000 140.2888 301.0000
  12.400   1.3663   0.04498   0.02085  -0.0367   0.0109   1.0000 140.2840 301.0000
  12.500   1.3694   0.04594   0.02152  -0.0362   0.0110   1.0000 140.2758 301.0000
  12.600   1.3721   0.04695   0.02223  -0.0357   0.0110   1.0000 140.2641 301.0000
  12.700   1.3745   0.04800   0.02299  -0.0352   0.0110   1.0000 140.2490 301.0000
  12.800   1.3765   0.04911   0.02378  -0.0348   0.0110   1.0000 140.2307 301.0000
  12.900   1.3781   0.05026   0.02463  -0.0343   0.0111   1.0000 140.2095 301.0000
  13.000   1.3795   0.05146   0.02551  -0.0339   0.0111   1.0000 140.1858 301.0000
  13.100   1.3807   0.05270   0.02642  -0.0334   0.0112   1.0000 140.1594 301.0000
  13.200   1.3820   0.05399   0.02737  -0.0330   0.0112   1.0000 140.1299 301.0000
  13.300   1.3841   0.05532   0.02833  -0.0327   0.0113   1.0000 140.0953 301.0000
  13.400   1.3896   0.05671   0.02925  -0.0323   0.0114   1.0000 140.0495 301.0000
  13.500   1.4024   0.05782   0.02985  -0.0321   0.0115   1.0000 139.9791 301.0000
  13.600   1.3978   0.05897   0.03085  -0.0317   0.0116   1.0000 139.9644 301.0000
  13.700   1.3921   0.06021   0.03197  -0.0314   0.0116   1.0000 139.9439 301.0000
